
---------- Begin Simulation Statistics ----------
simSeconds                                   0.404845                       # Number of seconds simulated (Second)
simTicks                                 404845037000                       # Number of ticks simulated (Tick)
finalTick                                404845037000                       # Number of ticks from beginning of simulation (restored from checkpoints and never reset) (Tick)
simFreq                                  1000000000000                       # The number of ticks per simulated second ((Tick/Second))
hostSeconds                                   2826.50                       # Real time elapsed on the host (Second)
hostTickRate                                143231966                       # The number of ticks simulated per host second (ticks/s) ((Tick/Second))
hostMemory                                    8532632                       # Number of bytes of host memory used (Byte)
simInsts                                     50000001                       # Number of instructions simulated (Count)
simOps                                       62368872                       # Number of ops (including micro ops) simulated (Count)
hostInstRate                                    17690                       # Simulator instruction rate (inst/s) ((Count/Second))
hostOpRate                                      22066                       # Simulator op (including micro ops) rate (op/s) ((Count/Second))
system.clk_domain.clock                          1000                       # Clock period in ticks (Tick)
system.clk_domain.voltage_domain.voltage            1                       # Voltage in Volts (Volt)
system.cpu.numCycles                        404845038                       # Number of cpu cycles simulated (Cycle)
system.cpu.numWorkItemsStarted                      0                       # Number of work items this cpu started (Count)
system.cpu.numWorkItemsCompleted                    0                       # Number of work items this cpu completed (Count)
system.cpu.instsAdded                       843756802                       # Number of instructions added to the IQ (excludes non-spec) (Count)
system.cpu.nonSpecInstsAdded                 29326745                       # Number of non-speculative instructions added to the IQ (Count)
system.cpu.instsIssued                      842186109                       # Number of instructions issued (Count)
system.cpu.squashedInstsIssued                   3513                       # Number of squashed instructions issued (Count)
system.cpu.squashedInstsExamined            810714620                       # Number of squashed instructions iterated over during squash; mainly for profiling (Count)
system.cpu.squashedOperandsExamined          65081409                       # Number of squashed operands that are examined and possibly removed from graph (Count)
system.cpu.squashedNonSpecRemoved            28437993                       # Number of squashed non-spec instructions that were removed (Count)
system.cpu.numIssuedDist::samples           404818380                       # Number of insts issued each cycle (Count)
system.cpu.numIssuedDist::mean               2.080405                       # Number of insts issued each cycle (Count)
system.cpu.numIssuedDist::stdev              2.781772                       # Number of insts issued each cycle (Count)
system.cpu.numIssuedDist::underflows                0      0.00%      0.00% # Number of insts issued each cycle (Count)
system.cpu.numIssuedDist::0                 236275687     58.37%     58.37% # Number of insts issued each cycle (Count)
system.cpu.numIssuedDist::1                  13127717      3.24%     61.61% # Number of insts issued each cycle (Count)
system.cpu.numIssuedDist::2                   8526057      2.11%     63.71% # Number of insts issued each cycle (Count)
system.cpu.numIssuedDist::3                   9610789      2.37%     66.09% # Number of insts issued each cycle (Count)
system.cpu.numIssuedDist::4                  35348582      8.73%     74.82% # Number of insts issued each cycle (Count)
system.cpu.numIssuedDist::5                  37786124      9.33%     84.16% # Number of insts issued each cycle (Count)
system.cpu.numIssuedDist::6                  20007116      4.94%     89.10% # Number of insts issued each cycle (Count)
system.cpu.numIssuedDist::7                  20284197      5.01%     94.11% # Number of insts issued each cycle (Count)
system.cpu.numIssuedDist::8                  23852111      5.89%    100.00% # Number of insts issued each cycle (Count)
system.cpu.numIssuedDist::overflows                 0      0.00%    100.00% # Number of insts issued each cycle (Count)
system.cpu.numIssuedDist::min_value                 0                       # Number of insts issued each cycle (Count)
system.cpu.numIssuedDist::max_value                 8                       # Number of insts issued each cycle (Count)
system.cpu.numIssuedDist::total             404818380                       # Number of insts issued each cycle (Count)
system.cpu.statFuBusy::No_OpClass                   0      0.00%      0.00% # attempts to use FU when none available (Count)
system.cpu.statFuBusy::IntAlu                    1827      0.00%      0.00% # attempts to use FU when none available (Count)
system.cpu.statFuBusy::IntMult                      0      0.00%      0.00% # attempts to use FU when none available (Count)
system.cpu.statFuBusy::IntDiv                       0      0.00%      0.00% # attempts to use FU when none available (Count)
system.cpu.statFuBusy::FloatAdd                     0      0.00%      0.00% # attempts to use FU when none available (Count)
system.cpu.statFuBusy::FloatCmp                     0      0.00%      0.00% # attempts to use FU when none available (Count)
system.cpu.statFuBusy::FloatCvt                     0      0.00%      0.00% # attempts to use FU when none available (Count)
system.cpu.statFuBusy::FloatMult                    0      0.00%      0.00% # attempts to use FU when none available (Count)
system.cpu.statFuBusy::FloatMultAcc                 0      0.00%      0.00% # attempts to use FU when none available (Count)
system.cpu.statFuBusy::FloatDiv                     0      0.00%      0.00% # attempts to use FU when none available (Count)
system.cpu.statFuBusy::FloatMisc                    0      0.00%      0.00% # attempts to use FU when none available (Count)
system.cpu.statFuBusy::FloatSqrt                    0      0.00%      0.00% # attempts to use FU when none available (Count)
system.cpu.statFuBusy::SimdAdd                      0      0.00%      0.00% # attempts to use FU when none available (Count)
system.cpu.statFuBusy::SimdAddAcc                   0      0.00%      0.00% # attempts to use FU when none available (Count)
system.cpu.statFuBusy::SimdAlu                     13      0.00%      0.00% # attempts to use FU when none available (Count)
system.cpu.statFuBusy::SimdCmp                      0      0.00%      0.00% # attempts to use FU when none available (Count)
system.cpu.statFuBusy::SimdCvt                      5      0.00%      0.00% # attempts to use FU when none available (Count)
system.cpu.statFuBusy::SimdMisc                     3      0.00%      0.00% # attempts to use FU when none available (Count)
system.cpu.statFuBusy::SimdMult                     0      0.00%      0.00% # attempts to use FU when none available (Count)
system.cpu.statFuBusy::SimdMultAcc                  0      0.00%      0.00% # attempts to use FU when none available (Count)
system.cpu.statFuBusy::SimdShift                    0      0.00%      0.00% # attempts to use FU when none available (Count)
system.cpu.statFuBusy::SimdShiftAcc                 0      0.00%      0.00% # attempts to use FU when none available (Count)
system.cpu.statFuBusy::SimdDiv                      0      0.00%      0.00% # attempts to use FU when none available (Count)
system.cpu.statFuBusy::SimdSqrt                     0      0.00%      0.00% # attempts to use FU when none available (Count)
system.cpu.statFuBusy::SimdFloatAdd                 0      0.00%      0.00% # attempts to use FU when none available (Count)
system.cpu.statFuBusy::SimdFloatAlu                 0      0.00%      0.00% # attempts to use FU when none available (Count)
system.cpu.statFuBusy::SimdFloatCmp                 0      0.00%      0.00% # attempts to use FU when none available (Count)
system.cpu.statFuBusy::SimdFloatCvt                 0      0.00%      0.00% # attempts to use FU when none available (Count)
system.cpu.statFuBusy::SimdFloatDiv                 0      0.00%      0.00% # attempts to use FU when none available (Count)
system.cpu.statFuBusy::SimdFloatMisc                0      0.00%      0.00% # attempts to use FU when none available (Count)
system.cpu.statFuBusy::SimdFloatMult                0      0.00%      0.00% # attempts to use FU when none available (Count)
system.cpu.statFuBusy::SimdFloatMultAcc             0      0.00%      0.00% # attempts to use FU when none available (Count)
system.cpu.statFuBusy::SimdFloatSqrt                0      0.00%      0.00% # attempts to use FU when none available (Count)
system.cpu.statFuBusy::SimdReduceAdd                0      0.00%      0.00% # attempts to use FU when none available (Count)
system.cpu.statFuBusy::SimdReduceAlu                0      0.00%      0.00% # attempts to use FU when none available (Count)
system.cpu.statFuBusy::SimdReduceCmp                0      0.00%      0.00% # attempts to use FU when none available (Count)
system.cpu.statFuBusy::SimdFloatReduceAdd            0      0.00%      0.00% # attempts to use FU when none available (Count)
system.cpu.statFuBusy::SimdFloatReduceCmp            0      0.00%      0.00% # attempts to use FU when none available (Count)
system.cpu.statFuBusy::SimdAes                      0      0.00%      0.00% # attempts to use FU when none available (Count)
system.cpu.statFuBusy::SimdAesMix                   0      0.00%      0.00% # attempts to use FU when none available (Count)
system.cpu.statFuBusy::SimdSha1Hash                 0      0.00%      0.00% # attempts to use FU when none available (Count)
system.cpu.statFuBusy::SimdSha1Hash2                0      0.00%      0.00% # attempts to use FU when none available (Count)
system.cpu.statFuBusy::SimdSha256Hash               0      0.00%      0.00% # attempts to use FU when none available (Count)
system.cpu.statFuBusy::SimdSha256Hash2              0      0.00%      0.00% # attempts to use FU when none available (Count)
system.cpu.statFuBusy::SimdShaSigma2                0      0.00%      0.00% # attempts to use FU when none available (Count)
system.cpu.statFuBusy::SimdShaSigma3                0      0.00%      0.00% # attempts to use FU when none available (Count)
system.cpu.statFuBusy::SimdPredAlu                  0      0.00%      0.00% # attempts to use FU when none available (Count)
system.cpu.statFuBusy::MemRead               66410490     91.14%     91.14% # attempts to use FU when none available (Count)
system.cpu.statFuBusy::MemWrite               6455358      8.86%    100.00% # attempts to use FU when none available (Count)
system.cpu.statFuBusy::FloatMemRead                 4      0.00%    100.00% # attempts to use FU when none available (Count)
system.cpu.statFuBusy::FloatMemWrite              660      0.00%    100.00% # attempts to use FU when none available (Count)
system.cpu.statFuBusy::IprAccess                    0      0.00%    100.00% # attempts to use FU when none available (Count)
system.cpu.statFuBusy::InstPrefetch                 0      0.00%    100.00% # attempts to use FU when none available (Count)
system.cpu.statIssuedInstType_0::No_OpClass    233826734     27.76%     27.76% # Number of instructions issued per FU type, per thread (Count)
system.cpu.statIssuedInstType_0::IntAlu     114674138     13.62%     41.38% # Number of instructions issued per FU type, per thread (Count)
system.cpu.statIssuedInstType_0::IntMult       131132      0.02%     41.40% # Number of instructions issued per FU type, per thread (Count)
system.cpu.statIssuedInstType_0::IntDiv            82      0.00%     41.40% # Number of instructions issued per FU type, per thread (Count)
system.cpu.statIssuedInstType_0::FloatAdd           30      0.00%     41.40% # Number of instructions issued per FU type, per thread (Count)
system.cpu.statIssuedInstType_0::FloatCmp            0      0.00%     41.40% # Number of instructions issued per FU type, per thread (Count)
system.cpu.statIssuedInstType_0::FloatCvt            0      0.00%     41.40% # Number of instructions issued per FU type, per thread (Count)
system.cpu.statIssuedInstType_0::FloatMult            0      0.00%     41.40% # Number of instructions issued per FU type, per thread (Count)
system.cpu.statIssuedInstType_0::FloatMultAcc            0      0.00%     41.40% # Number of instructions issued per FU type, per thread (Count)
system.cpu.statIssuedInstType_0::FloatDiv            0      0.00%     41.40% # Number of instructions issued per FU type, per thread (Count)
system.cpu.statIssuedInstType_0::FloatMisc            0      0.00%     41.40% # Number of instructions issued per FU type, per thread (Count)
system.cpu.statIssuedInstType_0::FloatSqrt            0      0.00%     41.40% # Number of instructions issued per FU type, per thread (Count)
system.cpu.statIssuedInstType_0::SimdAdd            0      0.00%     41.40% # Number of instructions issued per FU type, per thread (Count)
system.cpu.statIssuedInstType_0::SimdAddAcc            0      0.00%     41.40% # Number of instructions issued per FU type, per thread (Count)
system.cpu.statIssuedInstType_0::SimdAlu          678      0.00%     41.40% # Number of instructions issued per FU type, per thread (Count)
system.cpu.statIssuedInstType_0::SimdCmp            0      0.00%     41.40% # Number of instructions issued per FU type, per thread (Count)
system.cpu.statIssuedInstType_0::SimdCvt          128      0.00%     41.40% # Number of instructions issued per FU type, per thread (Count)
system.cpu.statIssuedInstType_0::SimdMisc          280      0.00%     41.40% # Number of instructions issued per FU type, per thread (Count)
system.cpu.statIssuedInstType_0::SimdMult            0      0.00%     41.40% # Number of instructions issued per FU type, per thread (Count)
system.cpu.statIssuedInstType_0::SimdMultAcc            0      0.00%     41.40% # Number of instructions issued per FU type, per thread (Count)
system.cpu.statIssuedInstType_0::SimdShift            0      0.00%     41.40% # Number of instructions issued per FU type, per thread (Count)
system.cpu.statIssuedInstType_0::SimdShiftAcc            0      0.00%     41.40% # Number of instructions issued per FU type, per thread (Count)
system.cpu.statIssuedInstType_0::SimdDiv            0      0.00%     41.40% # Number of instructions issued per FU type, per thread (Count)
system.cpu.statIssuedInstType_0::SimdSqrt            0      0.00%     41.40% # Number of instructions issued per FU type, per thread (Count)
system.cpu.statIssuedInstType_0::SimdFloatAdd            0      0.00%     41.40% # Number of instructions issued per FU type, per thread (Count)
system.cpu.statIssuedInstType_0::SimdFloatAlu            0      0.00%     41.40% # Number of instructions issued per FU type, per thread (Count)
system.cpu.statIssuedInstType_0::SimdFloatCmp            0      0.00%     41.40% # Number of instructions issued per FU type, per thread (Count)
system.cpu.statIssuedInstType_0::SimdFloatCvt            0      0.00%     41.40% # Number of instructions issued per FU type, per thread (Count)
system.cpu.statIssuedInstType_0::SimdFloatDiv            0      0.00%     41.40% # Number of instructions issued per FU type, per thread (Count)
system.cpu.statIssuedInstType_0::SimdFloatMisc            0      0.00%     41.40% # Number of instructions issued per FU type, per thread (Count)
system.cpu.statIssuedInstType_0::SimdFloatMult            0      0.00%     41.40% # Number of instructions issued per FU type, per thread (Count)
system.cpu.statIssuedInstType_0::SimdFloatMultAcc            0      0.00%     41.40% # Number of instructions issued per FU type, per thread (Count)
system.cpu.statIssuedInstType_0::SimdFloatSqrt            0      0.00%     41.40% # Number of instructions issued per FU type, per thread (Count)
system.cpu.statIssuedInstType_0::SimdReduceAdd            0      0.00%     41.40% # Number of instructions issued per FU type, per thread (Count)
system.cpu.statIssuedInstType_0::SimdReduceAlu            0      0.00%     41.40% # Number of instructions issued per FU type, per thread (Count)
system.cpu.statIssuedInstType_0::SimdReduceCmp            0      0.00%     41.40% # Number of instructions issued per FU type, per thread (Count)
system.cpu.statIssuedInstType_0::SimdFloatReduceAdd            0      0.00%     41.40% # Number of instructions issued per FU type, per thread (Count)
system.cpu.statIssuedInstType_0::SimdFloatReduceCmp            0      0.00%     41.40% # Number of instructions issued per FU type, per thread (Count)
system.cpu.statIssuedInstType_0::SimdAes            0      0.00%     41.40% # Number of instructions issued per FU type, per thread (Count)
system.cpu.statIssuedInstType_0::SimdAesMix            0      0.00%     41.40% # Number of instructions issued per FU type, per thread (Count)
system.cpu.statIssuedInstType_0::SimdSha1Hash            0      0.00%     41.40% # Number of instructions issued per FU type, per thread (Count)
system.cpu.statIssuedInstType_0::SimdSha1Hash2            0      0.00%     41.40% # Number of instructions issued per FU type, per thread (Count)
system.cpu.statIssuedInstType_0::SimdSha256Hash            0      0.00%     41.40% # Number of instructions issued per FU type, per thread (Count)
system.cpu.statIssuedInstType_0::SimdSha256Hash2            0      0.00%     41.40% # Number of instructions issued per FU type, per thread (Count)
system.cpu.statIssuedInstType_0::SimdShaSigma2            0      0.00%     41.40% # Number of instructions issued per FU type, per thread (Count)
system.cpu.statIssuedInstType_0::SimdShaSigma3            0      0.00%     41.40% # Number of instructions issued per FU type, per thread (Count)
system.cpu.statIssuedInstType_0::SimdPredAlu            0      0.00%     41.40% # Number of instructions issued per FU type, per thread (Count)
system.cpu.statIssuedInstType_0::MemRead    255511293     30.34%     71.74% # Number of instructions issued per FU type, per thread (Count)
system.cpu.statIssuedInstType_0::MemWrite    238039953     28.26%    100.00% # Number of instructions issued per FU type, per thread (Count)
system.cpu.statIssuedInstType_0::FloatMemRead          109      0.00%    100.00% # Number of instructions issued per FU type, per thread (Count)
system.cpu.statIssuedInstType_0::FloatMemWrite         1552      0.00%    100.00% # Number of instructions issued per FU type, per thread (Count)
system.cpu.statIssuedInstType_0::IprAccess            0      0.00%    100.00% # Number of instructions issued per FU type, per thread (Count)
system.cpu.statIssuedInstType_0::InstPrefetch            0      0.00%    100.00% # Number of instructions issued per FU type, per thread (Count)
system.cpu.statIssuedInstType_0::total      842186109                       # Number of instructions issued per FU type, per thread (Count)
system.cpu.issueRate                         2.080268                       # Inst issue rate ((Count/Cycle))
system.cpu.fuBusy                            72868360                       # FU busy when requested (Count)
system.cpu.fuBusyRate                        0.086523                       # FU busy rate (busy events/executed inst) ((Count/Count))
system.cpu.intInstQueueReads               2162053649                       # Number of integer instruction queue reads (Count)
system.cpu.intInstQueueWrites              1683788070                       # Number of integer instruction queue writes (Count)
system.cpu.intInstQueueWakeupAccesses       591857155                       # Number of integer instruction queue wakeup accesses (Count)
system.cpu.fpInstQueueReads                      8821                       # Number of floating instruction queue reads (Count)
system.cpu.fpInstQueueWrites                    10843                       # Number of floating instruction queue writes (Count)
system.cpu.fpInstQueueWakeupAccesses             2003                       # Number of floating instruction queue wakeup accesses (Count)
system.cpu.vecInstQueueReads                        0                       # Number of vector instruction queue reads (Count)
system.cpu.vecInstQueueWrites                       0                       # Number of vector instruction queue writes (Count)
system.cpu.vecInstQueueWakeupAccesses               0                       # Number of vector instruction queue wakeup accesses (Count)
system.cpu.intAluAccesses                   681224209                       # Number of integer alu accesses (Count)
system.cpu.fpAluAccesses                         3526                       # Number of floating point alu accesses (Count)
system.cpu.vecAluAccesses                           0                       # Number of vector alu accesses (Count)
system.cpu.numInsts                         839863574                       # Number of executed instructions (Count)
system.cpu.numLoadInsts                     255416956                       # Number of load instructions executed (Count)
system.cpu.numSquashedInsts                   2322534                       # Number of squashed instructions skipped in execute (Count)
system.cpu.numSwp                                   0                       # Number of swp insts executed (Count)
system.cpu.numNop                                   0                       # Number of nop insts executed (Count)
system.cpu.numRefs                          491244000                       # Number of memory reference insts executed (Count)
system.cpu.numBranches                       17737746                       # Number of branches executed (Count)
system.cpu.numStoreInsts                    235827044                       # Number of stores executed (Count)
system.cpu.numRate                           2.074531                       # Inst execution rate ((Count/Cycle))
system.cpu.timesIdled                             383                       # Number of times that the entire CPU went into an idle state and unscheduled itself (Count)
system.cpu.idleCycles                           26658                       # Total number of cycles that the CPU has spent unscheduled due to idling (Cycle)
system.cpu.committedInsts                    50000001                       # Number of Instructions Simulated (Count)
system.cpu.committedOps                      62368872                       # Number of Ops (including micro ops) Simulated (Count)
system.cpu.cpi                               8.096901                       # CPI: Cycles Per Instruction ((Cycle/Count))
system.cpu.totalCpi                          8.096901                       # CPI: Total CPI of All Threads ((Cycle/Count))
system.cpu.ipc                               0.123504                       # IPC: Instructions Per Cycle ((Count/Cycle))
system.cpu.totalIpc                          0.123504                       # IPC: Total IPC of All Threads ((Count/Cycle))
system.cpu.intRegfileReads                  866389082                       # Number of integer regfile reads (Count)
system.cpu.intRegfileWrites                 343499551                       # Number of integer regfile writes (Count)
system.cpu.fpRegfileReads                        3091                       # Number of floating regfile reads (Count)
system.cpu.fpRegfileWrites                       1167                       # Number of floating regfile writes (Count)
system.cpu.ccRegfileReads                   102312092                       # number of cc regfile reads (Count)
system.cpu.ccRegfileWrites                   45418477                       # number of cc regfile writes (Count)
system.cpu.miscRegfileReads                 526715945                       # number of misc regfile reads (Count)
system.cpu.MemDepUnit__0.insertedLoads      255811018                       # Number of loads inserted to the mem dependence unit. (Count)
system.cpu.MemDepUnit__0.insertedStores     239541062                       # Number of stores inserted to the mem dependence unit. (Count)
system.cpu.MemDepUnit__0.conflictingLoads      5947335                       # Number of conflicting loads. (Count)
system.cpu.MemDepUnit__0.conflictingStores       841391                       # Number of conflicting stores. (Count)
system.cpu.MemDepUnit__1.insertedLoads              0                       # Number of loads inserted to the mem dependence unit. (Count)
system.cpu.MemDepUnit__1.insertedStores             0                       # Number of stores inserted to the mem dependence unit. (Count)
system.cpu.MemDepUnit__1.conflictingLoads            0                       # Number of conflicting loads. (Count)
system.cpu.MemDepUnit__1.conflictingStores            0                       # Number of conflicting stores. (Count)
system.cpu.MemDepUnit__2.insertedLoads              0                       # Number of loads inserted to the mem dependence unit. (Count)
system.cpu.MemDepUnit__2.insertedStores             0                       # Number of stores inserted to the mem dependence unit. (Count)
system.cpu.MemDepUnit__2.conflictingLoads            0                       # Number of conflicting loads. (Count)
system.cpu.MemDepUnit__2.conflictingStores            0                       # Number of conflicting stores. (Count)
system.cpu.MemDepUnit__3.insertedLoads              0                       # Number of loads inserted to the mem dependence unit. (Count)
system.cpu.MemDepUnit__3.insertedStores             0                       # Number of stores inserted to the mem dependence unit. (Count)
system.cpu.MemDepUnit__3.conflictingLoads            0                       # Number of conflicting loads. (Count)
system.cpu.MemDepUnit__3.conflictingStores            0                       # Number of conflicting stores. (Count)
system.cpu.branchPred.lookups                22571950                       # Number of BP lookups (Count)
system.cpu.branchPred.condPredicted          21788787                       # Number of conditional branches predicted (Count)
system.cpu.branchPred.condIncorrect             91475                       # Number of conditional branches incorrect (Count)
system.cpu.branchPred.BTBLookups             21832461                       # Number of BTB lookups (Count)
system.cpu.branchPred.BTBHits                21822143                       # Number of BTB hits (Count)
system.cpu.branchPred.BTBHitRatio            0.999527                       # BTB Hit Ratio (Ratio)
system.cpu.branchPred.RASUsed                   24452                       # Number of times the RAS was used to get a target. (Count)
system.cpu.branchPred.RASIncorrect                  2                       # Number of incorrect RAS predictions. (Count)
system.cpu.branchPred.indirectLookups             273                       # Number of indirect predictor lookups. (Count)
system.cpu.branchPred.indirectHits                 42                       # Number of indirect target hits. (Count)
system.cpu.branchPred.indirectMisses              231                       # Number of indirect misses. (Count)
system.cpu.branchPred.indirectMispredicted           70                       # Number of mispredicted indirect branches. (Count)
system.cpu.commit.commitSquashedInsts       535372306                       # The number of squashed insts skipped by commit (Count)
system.cpu.commit.commitNonSpecStalls          888752                       # The number of times commit has been forced to stall to communicate backwards (Count)
system.cpu.commit.branchMispredicts             88898                       # The number of times a branch was mispredicted (Count)
system.cpu.commit.numCommittedDist::samples    335327316                       # Number of insts commited each cycle (Count)
system.cpu.commit.numCommittedDist::mean     0.185994                       # Number of insts commited each cycle (Count)
system.cpu.commit.numCommittedDist::stdev     0.973193                       # Number of insts commited each cycle (Count)
system.cpu.commit.numCommittedDist::underflows            0      0.00%      0.00% # Number of insts commited each cycle (Count)
system.cpu.commit.numCommittedDist::0       312997712     93.34%     93.34% # Number of insts commited each cycle (Count)
system.cpu.commit.numCommittedDist::1        11881115      3.54%     96.88% # Number of insts commited each cycle (Count)
system.cpu.commit.numCommittedDist::2         3054096      0.91%     97.79% # Number of insts commited each cycle (Count)
system.cpu.commit.numCommittedDist::3         2374435      0.71%     98.50% # Number of insts commited each cycle (Count)
system.cpu.commit.numCommittedDist::4          235936      0.07%     98.57% # Number of insts commited each cycle (Count)
system.cpu.commit.numCommittedDist::5          430567      0.13%     98.70% # Number of insts commited each cycle (Count)
system.cpu.commit.numCommittedDist::6          291051      0.09%     98.79% # Number of insts commited each cycle (Count)
system.cpu.commit.numCommittedDist::7           85857      0.03%     98.81% # Number of insts commited each cycle (Count)
system.cpu.commit.numCommittedDist::8         3976547      1.19%    100.00% # Number of insts commited each cycle (Count)
system.cpu.commit.numCommittedDist::overflows            0      0.00%    100.00% # Number of insts commited each cycle (Count)
system.cpu.commit.numCommittedDist::min_value            0                       # Number of insts commited each cycle (Count)
system.cpu.commit.numCommittedDist::max_value            8                       # Number of insts commited each cycle (Count)
system.cpu.commit.numCommittedDist::total    335327316                       # Number of insts commited each cycle (Count)
system.cpu.commit.instsCommitted             50000001                       # Number of instructions committed (Count)
system.cpu.commit.opsCommitted               62368872                       # Number of ops (including micro ops) committed (Count)
system.cpu.commit.memRefs                    36814370                       # Number of memory references committed (Count)
system.cpu.commit.loads                      25317332                       # Number of loads committed (Count)
system.cpu.commit.amos                              0                       # Number of atomic instructions committed (Count)
system.cpu.commit.membars                          48                       # Number of memory barriers committed (Count)
system.cpu.commit.branches                    3201949                       # Number of branches committed (Count)
system.cpu.commit.vectorInstructions                0                       # Number of committed Vector instructions. (Count)
system.cpu.commit.floating                        835                       # Number of committed floating point instructions. (Count)
system.cpu.commit.integer                    61431726                       # Number of committed integer instructions. (Count)
system.cpu.commit.functionCalls                 21390                       # Number of function calls committed. (Count)
system.cpu.commit.committedInstType_0::No_OpClass       888801      1.43%      1.43% # Class of committed instruction (Count)
system.cpu.commit.committedInstType_0::IntAlu     24534233     39.34%     40.76% # Class of committed instruction (Count)
system.cpu.commit.committedInstType_0::IntMult       130868      0.21%     40.97% # Class of committed instruction (Count)
system.cpu.commit.committedInstType_0::IntDiv           70      0.00%     40.97% # Class of committed instruction (Count)
system.cpu.commit.committedInstType_0::FloatAdd           21      0.00%     40.97% # Class of committed instruction (Count)
system.cpu.commit.committedInstType_0::FloatCmp            0      0.00%     40.97% # Class of committed instruction (Count)
system.cpu.commit.committedInstType_0::FloatCvt            0      0.00%     40.97% # Class of committed instruction (Count)
system.cpu.commit.committedInstType_0::FloatMult            0      0.00%     40.97% # Class of committed instruction (Count)
system.cpu.commit.committedInstType_0::FloatMultAcc            0      0.00%     40.97% # Class of committed instruction (Count)
system.cpu.commit.committedInstType_0::FloatDiv            0      0.00%     40.97% # Class of committed instruction (Count)
system.cpu.commit.committedInstType_0::FloatMisc            0      0.00%     40.97% # Class of committed instruction (Count)
system.cpu.commit.committedInstType_0::FloatSqrt            0      0.00%     40.97% # Class of committed instruction (Count)
system.cpu.commit.committedInstType_0::SimdAdd            0      0.00%     40.97% # Class of committed instruction (Count)
system.cpu.commit.committedInstType_0::SimdAddAcc            0      0.00%     40.97% # Class of committed instruction (Count)
system.cpu.commit.committedInstType_0::SimdAlu          142      0.00%     40.97% # Class of committed instruction (Count)
system.cpu.commit.committedInstType_0::SimdCmp            0      0.00%     40.97% # Class of committed instruction (Count)
system.cpu.commit.committedInstType_0::SimdCvt          126      0.00%     40.97% # Class of committed instruction (Count)
system.cpu.commit.committedInstType_0::SimdMisc          241      0.00%     40.97% # Class of committed instruction (Count)
system.cpu.commit.committedInstType_0::SimdMult            0      0.00%     40.97% # Class of committed instruction (Count)
system.cpu.commit.committedInstType_0::SimdMultAcc            0      0.00%     40.97% # Class of committed instruction (Count)
system.cpu.commit.committedInstType_0::SimdShift            0      0.00%     40.97% # Class of committed instruction (Count)
system.cpu.commit.committedInstType_0::SimdShiftAcc            0      0.00%     40.97% # Class of committed instruction (Count)
system.cpu.commit.committedInstType_0::SimdDiv            0      0.00%     40.97% # Class of committed instruction (Count)
system.cpu.commit.committedInstType_0::SimdSqrt            0      0.00%     40.97% # Class of committed instruction (Count)
system.cpu.commit.committedInstType_0::SimdFloatAdd            0      0.00%     40.97% # Class of committed instruction (Count)
system.cpu.commit.committedInstType_0::SimdFloatAlu            0      0.00%     40.97% # Class of committed instruction (Count)
system.cpu.commit.committedInstType_0::SimdFloatCmp            0      0.00%     40.97% # Class of committed instruction (Count)
system.cpu.commit.committedInstType_0::SimdFloatCvt            0      0.00%     40.97% # Class of committed instruction (Count)
system.cpu.commit.committedInstType_0::SimdFloatDiv            0      0.00%     40.97% # Class of committed instruction (Count)
system.cpu.commit.committedInstType_0::SimdFloatMisc            0      0.00%     40.97% # Class of committed instruction (Count)
system.cpu.commit.committedInstType_0::SimdFloatMult            0      0.00%     40.97% # Class of committed instruction (Count)
system.cpu.commit.committedInstType_0::SimdFloatMultAcc            0      0.00%     40.97% # Class of committed instruction (Count)
system.cpu.commit.committedInstType_0::SimdFloatSqrt            0      0.00%     40.97% # Class of committed instruction (Count)
system.cpu.commit.committedInstType_0::SimdReduceAdd            0      0.00%     40.97% # Class of committed instruction (Count)
system.cpu.commit.committedInstType_0::SimdReduceAlu            0      0.00%     40.97% # Class of committed instruction (Count)
system.cpu.commit.committedInstType_0::SimdReduceCmp            0      0.00%     40.97% # Class of committed instruction (Count)
system.cpu.commit.committedInstType_0::SimdFloatReduceAdd            0      0.00%     40.97% # Class of committed instruction (Count)
system.cpu.commit.committedInstType_0::SimdFloatReduceCmp            0      0.00%     40.97% # Class of committed instruction (Count)
system.cpu.commit.committedInstType_0::SimdAes            0      0.00%     40.97% # Class of committed instruction (Count)
system.cpu.commit.committedInstType_0::SimdAesMix            0      0.00%     40.97% # Class of committed instruction (Count)
system.cpu.commit.committedInstType_0::SimdSha1Hash            0      0.00%     40.97% # Class of committed instruction (Count)
system.cpu.commit.committedInstType_0::SimdSha1Hash2            0      0.00%     40.97% # Class of committed instruction (Count)
system.cpu.commit.committedInstType_0::SimdSha256Hash            0      0.00%     40.97% # Class of committed instruction (Count)
system.cpu.commit.committedInstType_0::SimdSha256Hash2            0      0.00%     40.97% # Class of committed instruction (Count)
system.cpu.commit.committedInstType_0::SimdShaSigma2            0      0.00%     40.97% # Class of committed instruction (Count)
system.cpu.commit.committedInstType_0::SimdShaSigma3            0      0.00%     40.97% # Class of committed instruction (Count)
system.cpu.commit.committedInstType_0::SimdPredAlu            0      0.00%     40.97% # Class of committed instruction (Count)
system.cpu.commit.committedInstType_0::MemRead     25317250     40.59%     81.57% # Class of committed instruction (Count)
system.cpu.commit.committedInstType_0::MemWrite     11496874     18.43%    100.00% # Class of committed instruction (Count)
system.cpu.commit.committedInstType_0::FloatMemRead           82      0.00%    100.00% # Class of committed instruction (Count)
system.cpu.commit.committedInstType_0::FloatMemWrite          164      0.00%    100.00% # Class of committed instruction (Count)
system.cpu.commit.committedInstType_0::IprAccess            0      0.00%    100.00% # Class of committed instruction (Count)
system.cpu.commit.committedInstType_0::InstPrefetch            0      0.00%    100.00% # Class of committed instruction (Count)
system.cpu.commit.committedInstType_0::total     62368872                       # Class of committed instruction (Count)
system.cpu.commit.commitEligibleSamples       3976547                       # number cycles where commit BW limit reached (Cycle)
system.cpu.dcache.demandHits::cpu.data      255795582                       # number of demand (read+write) hits (Count)
system.cpu.dcache.demandHits::total         255795582                       # number of demand (read+write) hits (Count)
system.cpu.dcache.overallHits::cpu.data     255795582                       # number of overall hits (Count)
system.cpu.dcache.overallHits::total        255795582                       # number of overall hits (Count)
system.cpu.dcache.demandMisses::cpu.data      6103715                       # number of demand (read+write) misses (Count)
system.cpu.dcache.demandMisses::total         6103715                       # number of demand (read+write) misses (Count)
system.cpu.dcache.overallMisses::cpu.data      6169254                       # number of overall misses (Count)
system.cpu.dcache.overallMisses::total        6169254                       # number of overall misses (Count)
system.cpu.dcache.demandMissLatency::cpu.data 484653285976                       # number of demand (read+write) miss ticks (Tick)
system.cpu.dcache.demandMissLatency::total 484653285976                       # number of demand (read+write) miss ticks (Tick)
system.cpu.dcache.overallMissLatency::cpu.data 484653285976                       # number of overall miss ticks (Tick)
system.cpu.dcache.overallMissLatency::total 484653285976                       # number of overall miss ticks (Tick)
system.cpu.dcache.demandAccesses::cpu.data    261899297                       # number of demand (read+write) accesses (Count)
system.cpu.dcache.demandAccesses::total     261899297                       # number of demand (read+write) accesses (Count)
system.cpu.dcache.overallAccesses::cpu.data    261964836                       # number of overall (read+write) accesses (Count)
system.cpu.dcache.overallAccesses::total    261964836                       # number of overall (read+write) accesses (Count)
system.cpu.dcache.demandMissRate::cpu.data     0.023306                       # miss rate for demand accesses (Ratio)
system.cpu.dcache.demandMissRate::total      0.023306                       # miss rate for demand accesses (Ratio)
system.cpu.dcache.overallMissRate::cpu.data     0.023550                       # miss rate for overall accesses (Ratio)
system.cpu.dcache.overallMissRate::total     0.023550                       # miss rate for overall accesses (Ratio)
system.cpu.dcache.demandAvgMissLatency::cpu.data 79403.000628                       # average overall miss latency in ticks ((Tick/Count))
system.cpu.dcache.demandAvgMissLatency::total 79403.000628                       # average overall miss latency in ticks ((Tick/Count))
system.cpu.dcache.overallAvgMissLatency::cpu.data 78559.463750                       # average overall miss latency ((Tick/Count))
system.cpu.dcache.overallAvgMissLatency::total 78559.463750                       # average overall miss latency ((Tick/Count))
system.cpu.dcache.blockedCycles::no_mshrs      2885013                       # number of cycles access was blocked (Cycle)
system.cpu.dcache.blockedCycles::no_targets            0                       # number of cycles access was blocked (Cycle)
system.cpu.dcache.blockedCauses::no_mshrs        59933                       # number of times access was blocked (Count)
system.cpu.dcache.blockedCauses::no_targets            0                       # number of times access was blocked (Count)
system.cpu.dcache.avgBlocked::no_mshrs      48.137303                       # average number of cycles each access was blocked ((Cycle/Count))
system.cpu.dcache.avgBlocked::no_targets          nan                       # average number of cycles each access was blocked ((Cycle/Count))
system.cpu.dcache.writebacks::writebacks      1124922                       # number of writebacks (Count)
system.cpu.dcache.writebacks::total           1124922                       # number of writebacks (Count)
system.cpu.dcache.demandMshrHits::cpu.data      4050950                       # number of demand (read+write) MSHR hits (Count)
system.cpu.dcache.demandMshrHits::total       4050950                       # number of demand (read+write) MSHR hits (Count)
system.cpu.dcache.overallMshrHits::cpu.data      4050950                       # number of overall MSHR hits (Count)
system.cpu.dcache.overallMshrHits::total      4050950                       # number of overall MSHR hits (Count)
system.cpu.dcache.demandMshrMisses::cpu.data      2052765                       # number of demand (read+write) MSHR misses (Count)
system.cpu.dcache.demandMshrMisses::total      2052765                       # number of demand (read+write) MSHR misses (Count)
system.cpu.dcache.overallMshrMisses::cpu.data      2118303                       # number of overall MSHR misses (Count)
system.cpu.dcache.overallMshrMisses::total      2118303                       # number of overall MSHR misses (Count)
system.cpu.dcache.demandMshrMissLatency::cpu.data 213888703977                       # number of demand (read+write) MSHR miss ticks (Tick)
system.cpu.dcache.demandMshrMissLatency::total 213888703977                       # number of demand (read+write) MSHR miss ticks (Tick)
system.cpu.dcache.overallMshrMissLatency::cpu.data 221080824977                       # number of overall MSHR miss ticks (Tick)
system.cpu.dcache.overallMshrMissLatency::total 221080824977                       # number of overall MSHR miss ticks (Tick)
system.cpu.dcache.demandMshrMissRate::cpu.data     0.007838                       # mshr miss ratio for demand accesses (Ratio)
system.cpu.dcache.demandMshrMissRate::total     0.007838                       # mshr miss ratio for demand accesses (Ratio)
system.cpu.dcache.overallMshrMissRate::cpu.data     0.008086                       # mshr miss ratio for overall accesses (Ratio)
system.cpu.dcache.overallMshrMissRate::total     0.008086                       # mshr miss ratio for overall accesses (Ratio)
system.cpu.dcache.demandAvgMshrMissLatency::cpu.data 104195.416415                       # average overall mshr miss latency ((Tick/Count))
system.cpu.dcache.demandAvgMshrMissLatency::total 104195.416415                       # average overall mshr miss latency ((Tick/Count))
system.cpu.dcache.overallAvgMshrMissLatency::cpu.data 104366.950798                       # average overall mshr miss latency ((Tick/Count))
system.cpu.dcache.overallAvgMshrMissLatency::total 104366.950798                       # average overall mshr miss latency ((Tick/Count))
system.cpu.dcache.replacements                2117791                       # number of replacements (Count)
system.cpu.dcache.LockedRMWReadReq.hits::cpu.data           24                       # number of LockedRMWReadReq hits (Count)
system.cpu.dcache.LockedRMWReadReq.hits::total           24                       # number of LockedRMWReadReq hits (Count)
system.cpu.dcache.LockedRMWReadReq.accesses::cpu.data           24                       # number of LockedRMWReadReq accesses(hits+misses) (Count)
system.cpu.dcache.LockedRMWReadReq.accesses::total           24                       # number of LockedRMWReadReq accesses(hits+misses) (Count)
system.cpu.dcache.LockedRMWReadReq.mshrMissLatency::cpu.data       240000                       # number of LockedRMWReadReq MSHR miss ticks (Tick)
system.cpu.dcache.LockedRMWReadReq.mshrMissLatency::total       240000                       # number of LockedRMWReadReq MSHR miss ticks (Tick)
system.cpu.dcache.LockedRMWReadReq.avgMshrMissLatency::cpu.data          inf                       # average LockedRMWReadReq mshr miss latency ((Tick/Count))
system.cpu.dcache.LockedRMWReadReq.avgMshrMissLatency::total          inf                       # average LockedRMWReadReq mshr miss latency ((Tick/Count))
system.cpu.dcache.LockedRMWWriteReq.hits::cpu.data           24                       # number of LockedRMWWriteReq hits (Count)
system.cpu.dcache.LockedRMWWriteReq.hits::total           24                       # number of LockedRMWWriteReq hits (Count)
system.cpu.dcache.LockedRMWWriteReq.accesses::cpu.data           24                       # number of LockedRMWWriteReq accesses(hits+misses) (Count)
system.cpu.dcache.LockedRMWWriteReq.accesses::total           24                       # number of LockedRMWWriteReq accesses(hits+misses) (Count)
system.cpu.dcache.ReadReq.hits::cpu.data    245391056                       # number of ReadReq hits (Count)
system.cpu.dcache.ReadReq.hits::total       245391056                       # number of ReadReq hits (Count)
system.cpu.dcache.ReadReq.misses::cpu.data      5011226                       # number of ReadReq misses (Count)
system.cpu.dcache.ReadReq.misses::total       5011226                       # number of ReadReq misses (Count)
system.cpu.dcache.ReadReq.missLatency::cpu.data 368957167000                       # number of ReadReq miss ticks (Tick)
system.cpu.dcache.ReadReq.missLatency::total 368957167000                       # number of ReadReq miss ticks (Tick)
system.cpu.dcache.ReadReq.accesses::cpu.data    250402282                       # number of ReadReq accesses(hits+misses) (Count)
system.cpu.dcache.ReadReq.accesses::total    250402282                       # number of ReadReq accesses(hits+misses) (Count)
system.cpu.dcache.ReadReq.missRate::cpu.data     0.020013                       # miss rate for ReadReq accesses (Ratio)
system.cpu.dcache.ReadReq.missRate::total     0.020013                       # miss rate for ReadReq accesses (Ratio)
system.cpu.dcache.ReadReq.avgMissLatency::cpu.data 73626.128017                       # average ReadReq miss latency ((Tick/Count))
system.cpu.dcache.ReadReq.avgMissLatency::total 73626.128017                       # average ReadReq miss latency ((Tick/Count))
system.cpu.dcache.ReadReq.mshrHits::cpu.data      4050948                       # number of ReadReq MSHR hits (Count)
system.cpu.dcache.ReadReq.mshrHits::total      4050948                       # number of ReadReq MSHR hits (Count)
system.cpu.dcache.ReadReq.mshrMisses::cpu.data       960278                       # number of ReadReq MSHR misses (Count)
system.cpu.dcache.ReadReq.mshrMisses::total       960278                       # number of ReadReq MSHR misses (Count)
system.cpu.dcache.ReadReq.mshrMissLatency::cpu.data 100377738000                       # number of ReadReq MSHR miss ticks (Tick)
system.cpu.dcache.ReadReq.mshrMissLatency::total 100377738000                       # number of ReadReq MSHR miss ticks (Tick)
system.cpu.dcache.ReadReq.mshrMissRate::cpu.data     0.003835                       # mshr miss rate for ReadReq accesses (Ratio)
system.cpu.dcache.ReadReq.mshrMissRate::total     0.003835                       # mshr miss rate for ReadReq accesses (Ratio)
system.cpu.dcache.ReadReq.avgMshrMissLatency::cpu.data 104529.873641                       # average ReadReq mshr miss latency ((Tick/Count))
system.cpu.dcache.ReadReq.avgMshrMissLatency::total 104529.873641                       # average ReadReq mshr miss latency ((Tick/Count))
system.cpu.dcache.SoftPFReq.misses::cpu.data        65539                       # number of SoftPFReq misses (Count)
system.cpu.dcache.SoftPFReq.misses::total        65539                       # number of SoftPFReq misses (Count)
system.cpu.dcache.SoftPFReq.accesses::cpu.data        65539                       # number of SoftPFReq accesses(hits+misses) (Count)
system.cpu.dcache.SoftPFReq.accesses::total        65539                       # number of SoftPFReq accesses(hits+misses) (Count)
system.cpu.dcache.SoftPFReq.missRate::cpu.data            1                       # miss rate for SoftPFReq accesses (Ratio)
system.cpu.dcache.SoftPFReq.missRate::total            1                       # miss rate for SoftPFReq accesses (Ratio)
system.cpu.dcache.SoftPFReq.mshrMisses::cpu.data        65538                       # number of SoftPFReq MSHR misses (Count)
system.cpu.dcache.SoftPFReq.mshrMisses::total        65538                       # number of SoftPFReq MSHR misses (Count)
system.cpu.dcache.SoftPFReq.mshrMissLatency::cpu.data   7192121000                       # number of SoftPFReq MSHR miss ticks (Tick)
system.cpu.dcache.SoftPFReq.mshrMissLatency::total   7192121000                       # number of SoftPFReq MSHR miss ticks (Tick)
system.cpu.dcache.SoftPFReq.mshrMissRate::cpu.data     0.999985                       # mshr miss rate for SoftPFReq accesses (Ratio)
system.cpu.dcache.SoftPFReq.mshrMissRate::total     0.999985                       # mshr miss rate for SoftPFReq accesses (Ratio)
system.cpu.dcache.SoftPFReq.avgMshrMissLatency::cpu.data 109739.708261                       # average SoftPFReq mshr miss latency ((Tick/Count))
system.cpu.dcache.SoftPFReq.avgMshrMissLatency::total 109739.708261                       # average SoftPFReq mshr miss latency ((Tick/Count))
system.cpu.dcache.WriteReq.hits::cpu.data     10404526                       # number of WriteReq hits (Count)
system.cpu.dcache.WriteReq.hits::total       10404526                       # number of WriteReq hits (Count)
system.cpu.dcache.WriteReq.misses::cpu.data      1092489                       # number of WriteReq misses (Count)
system.cpu.dcache.WriteReq.misses::total      1092489                       # number of WriteReq misses (Count)
system.cpu.dcache.WriteReq.missLatency::cpu.data 115696118976                       # number of WriteReq miss ticks (Tick)
system.cpu.dcache.WriteReq.missLatency::total 115696118976                       # number of WriteReq miss ticks (Tick)
system.cpu.dcache.WriteReq.accesses::cpu.data     11497015                       # number of WriteReq accesses(hits+misses) (Count)
system.cpu.dcache.WriteReq.accesses::total     11497015                       # number of WriteReq accesses(hits+misses) (Count)
system.cpu.dcache.WriteReq.missRate::cpu.data     0.095024                       # miss rate for WriteReq accesses (Ratio)
system.cpu.dcache.WriteReq.missRate::total     0.095024                       # miss rate for WriteReq accesses (Ratio)
system.cpu.dcache.WriteReq.avgMissLatency::cpu.data 105901.404020                       # average WriteReq miss latency ((Tick/Count))
system.cpu.dcache.WriteReq.avgMissLatency::total 105901.404020                       # average WriteReq miss latency ((Tick/Count))
system.cpu.dcache.WriteReq.mshrHits::cpu.data            2                       # number of WriteReq MSHR hits (Count)
system.cpu.dcache.WriteReq.mshrHits::total            2                       # number of WriteReq MSHR hits (Count)
system.cpu.dcache.WriteReq.mshrMisses::cpu.data      1092487                       # number of WriteReq MSHR misses (Count)
system.cpu.dcache.WriteReq.mshrMisses::total      1092487                       # number of WriteReq MSHR misses (Count)
system.cpu.dcache.WriteReq.mshrMissLatency::cpu.data 113510965977                       # number of WriteReq MSHR miss ticks (Tick)
system.cpu.dcache.WriteReq.mshrMissLatency::total 113510965977                       # number of WriteReq MSHR miss ticks (Tick)
system.cpu.dcache.WriteReq.mshrMissRate::cpu.data     0.095024                       # mshr miss rate for WriteReq accesses (Ratio)
system.cpu.dcache.WriteReq.mshrMissRate::total     0.095024                       # mshr miss rate for WriteReq accesses (Ratio)
system.cpu.dcache.WriteReq.avgMshrMissLatency::cpu.data 103901.434046                       # average WriteReq mshr miss latency ((Tick/Count))
system.cpu.dcache.WriteReq.avgMshrMissLatency::total 103901.434046                       # average WriteReq mshr miss latency ((Tick/Count))
system.cpu.dcache.power_state.pwrStateResidencyTicks::UNDEFINED 404845037000                       # Cumulative time (in ticks) in various power states (Tick)
system.cpu.dcache.tags.tagsInUse           493.901123                       # Average ticks per tags in use ((Tick/Count))
system.cpu.dcache.tags.totalRefs            257913933                       # Total number of references to valid blocks. (Count)
system.cpu.dcache.tags.sampledRefs            2118303                       # Sample count of references to valid blocks. (Count)
system.cpu.dcache.tags.avgRefs             121.754977                       # Average number of references to valid blocks. ((Count/Count))
system.cpu.dcache.tags.warmupTick              240000                       # The tick when the warmup percentage was hit. (Tick)
system.cpu.dcache.tags.occupancies::cpu.data   493.901123                       # Average occupied blocks per tick, per requestor ((Count/Tick))
system.cpu.dcache.tags.avgOccs::cpu.data     0.964651                       # Average percentage of cache occupancy ((Ratio/Tick))
system.cpu.dcache.tags.avgOccs::total        0.964651                       # Average percentage of cache occupancy ((Ratio/Tick))
system.cpu.dcache.tags.occupanciesTaskId::1024          512                       # Occupied blocks per task id (Count)
system.cpu.dcache.tags.ageTaskId_1024::0            4                       # Occupied blocks per task id, per block age (Count)
system.cpu.dcache.tags.ageTaskId_1024::1           33                       # Occupied blocks per task id, per block age (Count)
system.cpu.dcache.tags.ageTaskId_1024::2          335                       # Occupied blocks per task id, per block age (Count)
system.cpu.dcache.tags.ageTaskId_1024::3           19                       # Occupied blocks per task id, per block age (Count)
system.cpu.dcache.tags.ageTaskId_1024::4          121                       # Occupied blocks per task id, per block age (Count)
system.cpu.dcache.tags.ratioOccsTaskId::1024            1                       # Ratio of occupied blocks and all blocks, per task id (Ratio)
system.cpu.dcache.tags.tagAccesses         1049977839                       # Number of tag accesses (Count)
system.cpu.dcache.tags.dataAccesses        1049977839                       # Number of data accesses (Count)
system.cpu.dcache.tags.power_state.pwrStateResidencyTicks::UNDEFINED 404845037000                       # Cumulative time (in ticks) in various power states (Tick)
system.cpu.decode.idleCycles                 46984242                       # Number of cycles decode is idle (Cycle)
system.cpu.decode.blockedCycles             216651878                       # Number of cycles decode is blocked (Cycle)
system.cpu.decode.runCycles                 124202137                       # Number of cycles decode is running (Cycle)
system.cpu.decode.unblockCycles               9731780                       # Number of cycles decode is unblocking (Cycle)
system.cpu.decode.squashCycles                7248343                       # Number of cycles decode is squashing (Cycle)
system.cpu.decode.branchResolved             17158605                       # Number of times decode resolved a branch (Count)
system.cpu.decode.branchMispred                  2660                       # Number of times decode detected a branch misprediction (Count)
system.cpu.decode.decodedInsts              942070938                       # Number of instructions handled by decode (Count)
system.cpu.decode.squashedInsts                 11686                       # Number of squashed instructions handled by decode (Count)
system.cpu.fetch.icacheStallCycles           91949938                       # Number of cycles fetch is stalled on an Icache miss (Cycle)
system.cpu.fetch.insts                      754039410                       # Number of instructions fetch has processed (Count)
system.cpu.fetch.branches                    22571950                       # Number of branches that fetch encountered (Count)
system.cpu.fetch.predictedBranches           21846637                       # Number of branches that fetch has predicted taken (Count)
system.cpu.fetch.cycles                     305617278                       # Number of cycles fetch has run and was not squashing or blocked (Cycle)
system.cpu.fetch.squashCycles                14501860                       # Number of cycles fetch has spent squashing (Cycle)
system.cpu.fetch.miscStallCycles                   15                       # Number of cycles fetch has spent waiting on interrupts, or bad addresses, or out of MSHRs (Cycle)
system.cpu.fetch.pendingTrapStallCycles           219                       # Number of stall cycles due to pending traps (Cycle)
system.cpu.fetch.cacheLines                  86620606                       # Number of cache lines fetched (Count)
system.cpu.fetch.icacheSquashes               1859962                       # Number of outstanding Icache misses that were squashed (Count)
system.cpu.fetch.nisnDist::samples          404818380                       # Number of instructions fetched each cycle (Total) (Count)
system.cpu.fetch.nisnDist::mean              2.709018                       # Number of instructions fetched each cycle (Total) (Count)
system.cpu.fetch.nisnDist::stdev             3.377541                       # Number of instructions fetched each cycle (Total) (Count)
system.cpu.fetch.nisnDist::underflows               0      0.00%      0.00% # Number of instructions fetched each cycle (Total) (Count)
system.cpu.fetch.nisnDist::0                222299012     54.91%     54.91% # Number of instructions fetched each cycle (Total) (Count)
system.cpu.fetch.nisnDist::1                  5434231      1.34%     56.26% # Number of instructions fetched each cycle (Total) (Count)
system.cpu.fetch.nisnDist::2                  2247179      0.56%     56.81% # Number of instructions fetched each cycle (Total) (Count)
system.cpu.fetch.nisnDist::3                 39736774      9.82%     66.63% # Number of instructions fetched each cycle (Total) (Count)
system.cpu.fetch.nisnDist::4                 18819620      4.65%     71.28% # Number of instructions fetched each cycle (Total) (Count)
system.cpu.fetch.nisnDist::5                  3179588      0.79%     72.06% # Number of instructions fetched each cycle (Total) (Count)
system.cpu.fetch.nisnDist::6                 12416814      3.07%     75.13% # Number of instructions fetched each cycle (Total) (Count)
system.cpu.fetch.nisnDist::7                  3637384      0.90%     76.03% # Number of instructions fetched each cycle (Total) (Count)
system.cpu.fetch.nisnDist::8                 97047778     23.97%    100.00% # Number of instructions fetched each cycle (Total) (Count)
system.cpu.fetch.nisnDist::overflows                0      0.00%    100.00% # Number of instructions fetched each cycle (Total) (Count)
system.cpu.fetch.nisnDist::min_value                0                       # Number of instructions fetched each cycle (Total) (Count)
system.cpu.fetch.nisnDist::max_value                8                       # Number of instructions fetched each cycle (Total) (Count)
system.cpu.fetch.nisnDist::total            404818380                       # Number of instructions fetched each cycle (Total) (Count)
system.cpu.fetch.branchRate                  0.055755                       # Number of branch fetches per cycle (Ratio)
system.cpu.fetch.rate                        1.862538                       # Number of inst fetches per cycle ((Count/Cycle))
system.cpu.icache.demandHits::cpu.inst       86619623                       # number of demand (read+write) hits (Count)
system.cpu.icache.demandHits::total          86619623                       # number of demand (read+write) hits (Count)
system.cpu.icache.overallHits::cpu.inst      86619623                       # number of overall hits (Count)
system.cpu.icache.overallHits::total         86619623                       # number of overall hits (Count)
system.cpu.icache.demandMisses::cpu.inst          983                       # number of demand (read+write) misses (Count)
system.cpu.icache.demandMisses::total             983                       # number of demand (read+write) misses (Count)
system.cpu.icache.overallMisses::cpu.inst          983                       # number of overall misses (Count)
system.cpu.icache.overallMisses::total            983                       # number of overall misses (Count)
system.cpu.icache.demandMissLatency::cpu.inst     93247000                       # number of demand (read+write) miss ticks (Tick)
system.cpu.icache.demandMissLatency::total     93247000                       # number of demand (read+write) miss ticks (Tick)
system.cpu.icache.overallMissLatency::cpu.inst     93247000                       # number of overall miss ticks (Tick)
system.cpu.icache.overallMissLatency::total     93247000                       # number of overall miss ticks (Tick)
system.cpu.icache.demandAccesses::cpu.inst     86620606                       # number of demand (read+write) accesses (Count)
system.cpu.icache.demandAccesses::total      86620606                       # number of demand (read+write) accesses (Count)
system.cpu.icache.overallAccesses::cpu.inst     86620606                       # number of overall (read+write) accesses (Count)
system.cpu.icache.overallAccesses::total     86620606                       # number of overall (read+write) accesses (Count)
system.cpu.icache.demandMissRate::cpu.inst     0.000011                       # miss rate for demand accesses (Ratio)
system.cpu.icache.demandMissRate::total      0.000011                       # miss rate for demand accesses (Ratio)
system.cpu.icache.overallMissRate::cpu.inst     0.000011                       # miss rate for overall accesses (Ratio)
system.cpu.icache.overallMissRate::total     0.000011                       # miss rate for overall accesses (Ratio)
system.cpu.icache.demandAvgMissLatency::cpu.inst 94859.613428                       # average overall miss latency in ticks ((Tick/Count))
system.cpu.icache.demandAvgMissLatency::total 94859.613428                       # average overall miss latency in ticks ((Tick/Count))
system.cpu.icache.overallAvgMissLatency::cpu.inst 94859.613428                       # average overall miss latency ((Tick/Count))
system.cpu.icache.overallAvgMissLatency::total 94859.613428                       # average overall miss latency ((Tick/Count))
system.cpu.icache.blockedCycles::no_mshrs          142                       # number of cycles access was blocked (Cycle)
system.cpu.icache.blockedCycles::no_targets            0                       # number of cycles access was blocked (Cycle)
system.cpu.icache.blockedCauses::no_mshrs            3                       # number of times access was blocked (Count)
system.cpu.icache.blockedCauses::no_targets            0                       # number of times access was blocked (Count)
system.cpu.icache.avgBlocked::no_mshrs      47.333333                       # average number of cycles each access was blocked ((Cycle/Count))
system.cpu.icache.avgBlocked::no_targets          nan                       # average number of cycles each access was blocked ((Cycle/Count))
system.cpu.icache.demandMshrHits::cpu.inst          264                       # number of demand (read+write) MSHR hits (Count)
system.cpu.icache.demandMshrHits::total           264                       # number of demand (read+write) MSHR hits (Count)
system.cpu.icache.overallMshrHits::cpu.inst          264                       # number of overall MSHR hits (Count)
system.cpu.icache.overallMshrHits::total          264                       # number of overall MSHR hits (Count)
system.cpu.icache.demandMshrMisses::cpu.inst          719                       # number of demand (read+write) MSHR misses (Count)
system.cpu.icache.demandMshrMisses::total          719                       # number of demand (read+write) MSHR misses (Count)
system.cpu.icache.overallMshrMisses::cpu.inst          719                       # number of overall MSHR misses (Count)
system.cpu.icache.overallMshrMisses::total          719                       # number of overall MSHR misses (Count)
system.cpu.icache.demandMshrMissLatency::cpu.inst     72054000                       # number of demand (read+write) MSHR miss ticks (Tick)
system.cpu.icache.demandMshrMissLatency::total     72054000                       # number of demand (read+write) MSHR miss ticks (Tick)
system.cpu.icache.overallMshrMissLatency::cpu.inst     72054000                       # number of overall MSHR miss ticks (Tick)
system.cpu.icache.overallMshrMissLatency::total     72054000                       # number of overall MSHR miss ticks (Tick)
system.cpu.icache.demandMshrMissRate::cpu.inst     0.000008                       # mshr miss ratio for demand accesses (Ratio)
system.cpu.icache.demandMshrMissRate::total     0.000008                       # mshr miss ratio for demand accesses (Ratio)
system.cpu.icache.overallMshrMissRate::cpu.inst     0.000008                       # mshr miss ratio for overall accesses (Ratio)
system.cpu.icache.overallMshrMissRate::total     0.000008                       # mshr miss ratio for overall accesses (Ratio)
system.cpu.icache.demandAvgMshrMissLatency::cpu.inst 100214.186370                       # average overall mshr miss latency ((Tick/Count))
system.cpu.icache.demandAvgMshrMissLatency::total 100214.186370                       # average overall mshr miss latency ((Tick/Count))
system.cpu.icache.overallAvgMshrMissLatency::cpu.inst 100214.186370                       # average overall mshr miss latency ((Tick/Count))
system.cpu.icache.overallAvgMshrMissLatency::total 100214.186370                       # average overall mshr miss latency ((Tick/Count))
system.cpu.icache.replacements                    289                       # number of replacements (Count)
system.cpu.icache.ReadReq.hits::cpu.inst     86619623                       # number of ReadReq hits (Count)
system.cpu.icache.ReadReq.hits::total        86619623                       # number of ReadReq hits (Count)
system.cpu.icache.ReadReq.misses::cpu.inst          983                       # number of ReadReq misses (Count)
system.cpu.icache.ReadReq.misses::total           983                       # number of ReadReq misses (Count)
system.cpu.icache.ReadReq.missLatency::cpu.inst     93247000                       # number of ReadReq miss ticks (Tick)
system.cpu.icache.ReadReq.missLatency::total     93247000                       # number of ReadReq miss ticks (Tick)
system.cpu.icache.ReadReq.accesses::cpu.inst     86620606                       # number of ReadReq accesses(hits+misses) (Count)
system.cpu.icache.ReadReq.accesses::total     86620606                       # number of ReadReq accesses(hits+misses) (Count)
system.cpu.icache.ReadReq.missRate::cpu.inst     0.000011                       # miss rate for ReadReq accesses (Ratio)
system.cpu.icache.ReadReq.missRate::total     0.000011                       # miss rate for ReadReq accesses (Ratio)
system.cpu.icache.ReadReq.avgMissLatency::cpu.inst 94859.613428                       # average ReadReq miss latency ((Tick/Count))
system.cpu.icache.ReadReq.avgMissLatency::total 94859.613428                       # average ReadReq miss latency ((Tick/Count))
system.cpu.icache.ReadReq.mshrHits::cpu.inst          264                       # number of ReadReq MSHR hits (Count)
system.cpu.icache.ReadReq.mshrHits::total          264                       # number of ReadReq MSHR hits (Count)
system.cpu.icache.ReadReq.mshrMisses::cpu.inst          719                       # number of ReadReq MSHR misses (Count)
system.cpu.icache.ReadReq.mshrMisses::total          719                       # number of ReadReq MSHR misses (Count)
system.cpu.icache.ReadReq.mshrMissLatency::cpu.inst     72054000                       # number of ReadReq MSHR miss ticks (Tick)
system.cpu.icache.ReadReq.mshrMissLatency::total     72054000                       # number of ReadReq MSHR miss ticks (Tick)
system.cpu.icache.ReadReq.mshrMissRate::cpu.inst     0.000008                       # mshr miss rate for ReadReq accesses (Ratio)
system.cpu.icache.ReadReq.mshrMissRate::total     0.000008                       # mshr miss rate for ReadReq accesses (Ratio)
system.cpu.icache.ReadReq.avgMshrMissLatency::cpu.inst 100214.186370                       # average ReadReq mshr miss latency ((Tick/Count))
system.cpu.icache.ReadReq.avgMshrMissLatency::total 100214.186370                       # average ReadReq mshr miss latency ((Tick/Count))
system.cpu.icache.power_state.pwrStateResidencyTicks::UNDEFINED 404845037000                       # Cumulative time (in ticks) in various power states (Tick)
system.cpu.icache.tags.tagsInUse           362.659304                       # Average ticks per tags in use ((Tick/Count))
system.cpu.icache.tags.totalRefs             86620342                       # Total number of references to valid blocks. (Count)
system.cpu.icache.tags.sampledRefs                719                       # Sample count of references to valid blocks. (Count)
system.cpu.icache.tags.avgRefs           120473.354659                       # Average number of references to valid blocks. ((Count/Count))
system.cpu.icache.tags.warmupTick              107000                       # The tick when the warmup percentage was hit. (Tick)
system.cpu.icache.tags.occupancies::cpu.inst   362.659304                       # Average occupied blocks per tick, per requestor ((Count/Tick))
system.cpu.icache.tags.avgOccs::cpu.inst     0.708319                       # Average percentage of cache occupancy ((Ratio/Tick))
system.cpu.icache.tags.avgOccs::total        0.708319                       # Average percentage of cache occupancy ((Ratio/Tick))
system.cpu.icache.tags.occupanciesTaskId::1024          430                       # Occupied blocks per task id (Count)
system.cpu.icache.tags.ageTaskId_1024::3            1                       # Occupied blocks per task id, per block age (Count)
system.cpu.icache.tags.ageTaskId_1024::4          429                       # Occupied blocks per task id, per block age (Count)
system.cpu.icache.tags.ratioOccsTaskId::1024     0.839844                       # Ratio of occupied blocks and all blocks, per task id (Ratio)
system.cpu.icache.tags.tagAccesses          173241931                       # Number of tag accesses (Count)
system.cpu.icache.tags.dataAccesses         173241931                       # Number of data accesses (Count)
system.cpu.icache.tags.power_state.pwrStateResidencyTicks::UNDEFINED 404845037000                       # Cumulative time (in ticks) in various power states (Tick)
system.cpu.iew.idleCycles                           0                       # Number of cycles IEW is idle (Cycle)
system.cpu.iew.squashCycles                   7248343                       # Number of cycles IEW is squashing (Cycle)
system.cpu.iew.blockCycles                   62248956                       # Number of cycles IEW is blocking (Cycle)
system.cpu.iew.unblockCycles                  8849577                       # Number of cycles IEW is unblocking (Cycle)
system.cpu.iew.dispatchedInsts              873083547                       # Number of instructions dispatched to IQ (Count)
system.cpu.iew.dispSquashedInsts                  736                       # Number of squashed instructions skipped by dispatch (Count)
system.cpu.iew.dispLoadInsts                255811018                       # Number of dispatched load instructions (Count)
system.cpu.iew.dispStoreInsts               239541062                       # Number of dispatched store instructions (Count)
system.cpu.iew.dispNonSpecInsts              29326242                       # Number of dispatched non-speculative instructions (Count)
system.cpu.iew.iqFullEvents                       160                       # Number of times the IQ has become full, causing a stall (Count)
system.cpu.iew.lsqFullEvents                  9737882                       # Number of times the LSQ has become full, causing a stall (Count)
system.cpu.iew.memOrderViolationEvents            820                       # Number of memory order violations (Count)
system.cpu.iew.predictedTakenIncorrect          22390                       # Number of branches that were predicted taken incorrectly (Count)
system.cpu.iew.predictedNotTakenIncorrect        67258                       # Number of branches that were predicted not taken incorrectly (Count)
system.cpu.iew.branchMispredicts                89648                       # Number of branch mispredicts detected at execute (Count)
system.cpu.iew.instsToCommit                833240292                       # Cumulative count of insts sent to commit (Count)
system.cpu.iew.writebackCount               591859158                       # Cumulative count of insts written-back (Count)
system.cpu.iew.producerInst                 277738568                       # Number of instructions producing a value (Count)
system.cpu.iew.consumerInst                 309287615                       # Number of instructions consuming a value (Count)
system.cpu.iew.wbRate                        1.461940                       # Insts written-back per cycle ((Count/Cycle))
system.cpu.iew.wbFanout                      0.897994                       # Average fanout of values written-back ((Count/Count))
system.cpu.interrupts.clk_domain.clock          16000                       # Clock period in ticks (Tick)
system.cpu.lsq0.forwLoads                     4880106                       # Number of loads that had data forwarded from stores (Count)
system.cpu.lsq0.squashedLoads               230493662                       # Number of loads squashed (Count)
system.cpu.lsq0.ignoredResponses                  946                       # Number of memory responses ignored because the instruction is squashed (Count)
system.cpu.lsq0.memOrderViolation                 820                       # Number of memory ordering violations (Count)
system.cpu.lsq0.squashedStores              228044019                       # Number of stores squashed (Count)
system.cpu.lsq0.rescheduledLoads                    9                       # Number of loads that were rescheduled (Count)
system.cpu.lsq0.blockedByCache                  47489                       # Number of times an access to memory failed due to the cache being blocked (Count)
system.cpu.lsq0.loadToUse::samples           25251793                       # Distribution of cycle latency between the first time a load is issued and its completion (Unspecified)
system.cpu.lsq0.loadToUse::mean              3.741108                       # Distribution of cycle latency between the first time a load is issued and its completion (Unspecified)
system.cpu.lsq0.loadToUse::stdev             7.326126                       # Distribution of cycle latency between the first time a load is issued and its completion (Unspecified)
system.cpu.lsq0.loadToUse::0-9               25111527     99.44%     99.44% # Distribution of cycle latency between the first time a load is issued and its completion (Unspecified)
system.cpu.lsq0.loadToUse::10-19                 5222      0.02%     99.47% # Distribution of cycle latency between the first time a load is issued and its completion (Unspecified)
system.cpu.lsq0.loadToUse::20-29                 5772      0.02%     99.49% # Distribution of cycle latency between the first time a load is issued and its completion (Unspecified)
system.cpu.lsq0.loadToUse::30-39                 6593      0.03%     99.51% # Distribution of cycle latency between the first time a load is issued and its completion (Unspecified)
system.cpu.lsq0.loadToUse::40-49                 5309      0.02%     99.54% # Distribution of cycle latency between the first time a load is issued and its completion (Unspecified)
system.cpu.lsq0.loadToUse::50-59                 4774      0.02%     99.55% # Distribution of cycle latency between the first time a load is issued and its completion (Unspecified)
system.cpu.lsq0.loadToUse::60-69                 3033      0.01%     99.57% # Distribution of cycle latency between the first time a load is issued and its completion (Unspecified)
system.cpu.lsq0.loadToUse::70-79                 2932      0.01%     99.58% # Distribution of cycle latency between the first time a load is issued and its completion (Unspecified)
system.cpu.lsq0.loadToUse::80-89                 9862      0.04%     99.62% # Distribution of cycle latency between the first time a load is issued and its completion (Unspecified)
system.cpu.lsq0.loadToUse::90-99                64794      0.26%     99.87% # Distribution of cycle latency between the first time a load is issued and its completion (Unspecified)
system.cpu.lsq0.loadToUse::100-109               8865      0.04%     99.91% # Distribution of cycle latency between the first time a load is issued and its completion (Unspecified)
system.cpu.lsq0.loadToUse::110-119               9413      0.04%     99.95% # Distribution of cycle latency between the first time a load is issued and its completion (Unspecified)
system.cpu.lsq0.loadToUse::120-129               5548      0.02%     99.97% # Distribution of cycle latency between the first time a load is issued and its completion (Unspecified)
system.cpu.lsq0.loadToUse::130-139                583      0.00%     99.97% # Distribution of cycle latency between the first time a load is issued and its completion (Unspecified)
[...]
system.mem_ctrl.dram.bytesWritten::total     71674816                       # Number of bytes written to this memory (Byte)
system.mem_ctrl.dram.numReads::cpu.inst           684                       # Number of read requests responded to by this memory (Count)
system.mem_ctrl.dram.numReads::cpu.data       2117286                       # Number of read requests responded to by this memory (Count)
system.mem_ctrl.dram.numReads::total          2117970                       # Number of read requests responded to by this memory (Count)
system.mem_ctrl.dram.numWrites::writebacks      1119919                       # Number of write requests responded to by this memory (Count)
system.mem_ctrl.dram.numWrites::total         1119919                       # Number of write requests responded to by this memory (Count)
system.mem_ctrl.dram.bwRead::cpu.inst          108130                       # Total read bandwidth from this memory ((Byte/Second))
system.mem_ctrl.dram.bwRead::cpu.data       334711536                       # Total read bandwidth from this memory ((Byte/Second))
system.mem_ctrl.dram.bwRead::total          334819666                       # Total read bandwidth from this memory ((Byte/Second))
system.mem_ctrl.dram.bwInstRead::cpu.inst       108130                       # Instruction read bandwidth from this memory ((Byte/Second))
system.mem_ctrl.dram.bwInstRead::total         108130                       # Instruction read bandwidth from this memory ((Byte/Second))
system.mem_ctrl.dram.bwWrite::writebacks    177042595                       # Write bandwidth from this memory ((Byte/Second))
system.mem_ctrl.dram.bwWrite::total         177042595                       # Write bandwidth from this memory ((Byte/Second))
system.mem_ctrl.dram.bwTotal::writebacks    177042595                       # Total bandwidth to/from this memory ((Byte/Second))
system.mem_ctrl.dram.bwTotal::cpu.inst         108130                       # Total bandwidth to/from this memory ((Byte/Second))
system.mem_ctrl.dram.bwTotal::cpu.data      334711536                       # Total bandwidth to/from this memory ((Byte/Second))
system.mem_ctrl.dram.bwTotal::total         511862261                       # Total bandwidth to/from this memory ((Byte/Second))
system.mem_ctrl.dram.readBursts               2117970                       # Number of DRAM read bursts (Count)
system.mem_ctrl.dram.writeBursts              1119889                       # Number of DRAM write bursts (Count)
system.mem_ctrl.dram.perBankRdBursts::0        132414                       # Per bank write bursts (Count)
system.mem_ctrl.dram.perBankRdBursts::1        132242                       # Per bank write bursts (Count)
system.mem_ctrl.dram.perBankRdBursts::2        132254                       # Per bank write bursts (Count)
system.mem_ctrl.dram.perBankRdBursts::3        132230                       # Per bank write bursts (Count)
system.mem_ctrl.dram.perBankRdBursts::4        132736                       # Per bank write bursts (Count)
system.mem_ctrl.dram.perBankRdBursts::5        132767                       # Per bank write bursts (Count)
system.mem_ctrl.dram.perBankRdBursts::6        132643                       # Per bank write bursts (Count)
system.mem_ctrl.dram.perBankRdBursts::7        132577                       # Per bank write bursts (Count)
system.mem_ctrl.dram.perBankRdBursts::8        132551                       # Per bank write bursts (Count)
system.mem_ctrl.dram.perBankRdBursts::9        132409                       # Per bank write bursts (Count)
system.mem_ctrl.dram.perBankRdBursts::10       132296                       # Per bank write bursts (Count)
system.mem_ctrl.dram.perBankRdBursts::11       132157                       # Per bank write bursts (Count)
system.mem_ctrl.dram.perBankRdBursts::12       132135                       # Per bank write bursts (Count)
system.mem_ctrl.dram.perBankRdBursts::13       132113                       # Per bank write bursts (Count)
system.mem_ctrl.dram.perBankRdBursts::14       132225                       # Per bank write bursts (Count)
system.mem_ctrl.dram.perBankRdBursts::15       132221                       # Per bank write bursts (Count)
system.mem_ctrl.dram.perBankWrBursts::0         70102                       # Per bank write bursts (Count)
system.mem_ctrl.dram.perBankWrBursts::1         70020                       # Per bank write bursts (Count)
system.mem_ctrl.dram.perBankWrBursts::2         70048                       # Per bank write bursts (Count)
system.mem_ctrl.dram.perBankWrBursts::3         70040                       # Per bank write bursts (Count)
system.mem_ctrl.dram.perBankWrBursts::4         69890                       # Per bank write bursts (Count)
system.mem_ctrl.dram.perBankWrBursts::5         70016                       # Per bank write bursts (Count)
system.mem_ctrl.dram.perBankWrBursts::6         70014                       # Per bank write bursts (Count)
system.mem_ctrl.dram.perBankWrBursts::7         70009                       # Per bank write bursts (Count)
system.mem_ctrl.dram.perBankWrBursts::8         69997                       # Per bank write bursts (Count)
system.mem_ctrl.dram.perBankWrBursts::9         69944                       # Per bank write bursts (Count)
system.mem_ctrl.dram.perBankWrBursts::10        69914                       # Per bank write bursts (Count)
system.mem_ctrl.dram.perBankWrBursts::11        69895                       # Per bank write bursts (Count)
system.mem_ctrl.dram.perBankWrBursts::12        69888                       # Per bank write bursts (Count)
system.mem_ctrl.dram.perBankWrBursts::13        70003                       # Per bank write bursts (Count)
system.mem_ctrl.dram.perBankWrBursts::14        70076                       # Per bank write bursts (Count)
system.mem_ctrl.dram.perBankWrBursts::15        70033                       # Per bank write bursts (Count)
system.mem_ctrl.dram.totQLat              24035417000                       # Total ticks spent queuing (Tick)
system.mem_ctrl.dram.totBusLat            10589850000                       # Total ticks spent in databus transfers (Tick)
system.mem_ctrl.dram.totMemAccLat         63747354500                       # Total ticks spent from burst creation until serviced by the DRAM (Tick)
system.mem_ctrl.dram.avgQLat                 11348.33                       # Average queueing delay per DRAM burst ((Tick/Count))
system.mem_ctrl.dram.avgBusLat                5000.00                       # Average bus latency per DRAM burst ((Tick/Count))
system.mem_ctrl.dram.avgMemAccLat            30098.33                       # Average memory access latency per DRAM burst ((Tick/Count))
system.mem_ctrl.dram.readRowHits              1869493                       # Number of row buffer hits during reads (Count)
system.mem_ctrl.dram.writeRowHits              968508                       # Number of row buffer hits during writes (Count)
system.mem_ctrl.dram.readRowHitRate             88.27                       # Row buffer hit rate for reads (Ratio)
system.mem_ctrl.dram.writeRowHitRate            86.48                       # Row buffer hit rate for writes (Ratio)
system.mem_ctrl.dram.bytesPerActivate::samples       399857                       # Bytes accessed per row activation (Byte)
system.mem_ctrl.dram.bytesPerActivate::mean   518.242392                       # Bytes accessed per row activation (Byte)
system.mem_ctrl.dram.bytesPerActivate::gmean   365.986222                       # Bytes accessed per row activation (Byte)
system.mem_ctrl.dram.bytesPerActivate::stdev   367.363644                       # Bytes accessed per row activation (Byte)
system.mem_ctrl.dram.bytesPerActivate::0-127        32682      8.17%      8.17% # Bytes accessed per row activation (Byte)
system.mem_ctrl.dram.bytesPerActivate::128-255       115558     28.90%     37.07% # Bytes accessed per row activation (Byte)
system.mem_ctrl.dram.bytesPerActivate::256-383        22442      5.61%     42.69% # Bytes accessed per row activation (Byte)
system.mem_ctrl.dram.bytesPerActivate::384-511        30308      7.58%     50.27% # Bytes accessed per row activation (Byte)
system.mem_ctrl.dram.bytesPerActivate::512-639        52950     13.24%     63.51% # Bytes accessed per row activation (Byte)
system.mem_ctrl.dram.bytesPerActivate::640-767        14157      3.54%     67.05% # Bytes accessed per row activation (Byte)
system.mem_ctrl.dram.bytesPerActivate::768-895        13546      3.39%     70.44% # Bytes accessed per row activation (Byte)
system.mem_ctrl.dram.bytesPerActivate::896-1023        13887      3.47%     73.91% # Bytes accessed per row activation (Byte)
system.mem_ctrl.dram.bytesPerActivate::1024-1151       104327     26.09%    100.00% # Bytes accessed per row activation (Byte)
system.mem_ctrl.dram.bytesPerActivate::total       399857                       # Bytes accessed per row activation (Byte)
system.mem_ctrl.dram.bytesRead              135550080                       # Total bytes read (Byte)
system.mem_ctrl.dram.bytesWritten            71672896                       # Total bytes written (Byte)
system.mem_ctrl.dram.avgRdBW               334.819666                       # Average DRAM read bandwidth in MiBytes/s ((Byte/Second))
system.mem_ctrl.dram.avgWrBW               177.037853                       # Average DRAM write bandwidth in MiBytes/s ((Byte/Second))
system.mem_ctrl.dram.peakBW                  12800.00                       # Theoretical peak bandwidth in MiByte/s ((Byte/Second))
system.mem_ctrl.dram.busUtil                     4.00                       # Data bus utilization in percentage (Ratio)
system.mem_ctrl.dram.busUtilRead                 2.62                       # Data bus utilization in percentage for reads (Ratio)
system.mem_ctrl.dram.busUtilWrite                1.38                       # Data bus utilization in percentage for writes (Ratio)
system.mem_ctrl.dram.pageHitRate                87.65                       # Row buffer hit rate, read and write combined (Ratio)
system.mem_ctrl.dram.power_state.pwrStateResidencyTicks::UNDEFINED 404845037000                       # Cumulative time (in ticks) in various power states (Tick)
system.mem_ctrl.dram.rank0.actEnergy       1430948820                       # Energy for activate commands per rank (pJ) (Joule)
system.mem_ctrl.dram.rank0.preEnergy        760563540                       # Energy for precharge commands per rank (pJ) (Joule)
system.mem_ctrl.dram.rank0.readEnergy      7567421820                       # Energy for read commands per rank (pJ) (Joule)
system.mem_ctrl.dram.rank0.writeEnergy     2923925580                       # Energy for write commands per rank (pJ) (Joule)
system.mem_ctrl.dram.rank0.refreshEnergy 31957592160.000004                       # Energy for refresh commands per rank (pJ) (Joule)
system.mem_ctrl.dram.rank0.actBackEnergy 141084151350                       # Energy for active background per rank (pJ) (Joule)
system.mem_ctrl.dram.rank0.preBackEnergy  36652788000                       # Energy for precharge background per rank (pJ) (Joule)
system.mem_ctrl.dram.rank0.actPowerDownEnergy            0                       # Energy for active power-down per rank (pJ) (Joule)
system.mem_ctrl.dram.rank0.prePowerDownEnergy            0                       # Energy for precharge power-down per rank (pJ) (Joule)
system.mem_ctrl.dram.rank0.selfRefreshEnergy            0                       # Energy for self refresh per rank (pJ) (Joule)
system.mem_ctrl.dram.rank0.totalEnergy   222377391270                       # Total energy per rank (pJ) (Joule)
system.mem_ctrl.dram.rank0.averagePower    549.290150                       # Core power per rank (mW) (Watt)
system.mem_ctrl.dram.rank0.totalIdleTime            0                       # Total Idle time Per DRAM Rank (Tick)
system.mem_ctrl.dram.rank0.pwrStateTime::IDLE  93509101250                       # Time in different power states (Tick)
system.mem_ctrl.dram.rank0.pwrStateTime::REF  13518440000                       # Time in different power states (Tick)
system.mem_ctrl.dram.rank0.pwrStateTime::SREF            0                       # Time in different power states (Tick)
system.mem_ctrl.dram.rank0.pwrStateTime::PRE_PDN            0                       # Time in different power states (Tick)
system.mem_ctrl.dram.rank0.pwrStateTime::ACT 297817495750                       # Time in different power states (Tick)
system.mem_ctrl.dram.rank0.pwrStateTime::ACT_PDN            0                       # Time in different power states (Tick)
system.mem_ctrl.dram.rank1.actEnergy       1424037300                       # Energy for activate commands per rank (pJ) (Joule)
system.mem_ctrl.dram.rank1.preEnergy        756893775                       # Energy for precharge commands per rank (pJ) (Joule)
system.mem_ctrl.dram.rank1.readEnergy      7554883980                       # Energy for read commands per rank (pJ) (Joule)
system.mem_ctrl.dram.rank1.writeEnergy     2921895000                       # Energy for write commands per rank (pJ) (Joule)
system.mem_ctrl.dram.rank1.refreshEnergy 31957592160.000004                       # Energy for refresh commands per rank (pJ) (Joule)
system.mem_ctrl.dram.rank1.actBackEnergy 140562631560                       # Energy for active background per rank (pJ) (Joule)
system.mem_ctrl.dram.rank1.preBackEnergy  37091962560                       # Energy for precharge background per rank (pJ) (Joule)
system.mem_ctrl.dram.rank1.actPowerDownEnergy            0                       # Energy for active power-down per rank (pJ) (Joule)
system.mem_ctrl.dram.rank1.prePowerDownEnergy            0                       # Energy for precharge power-down per rank (pJ) (Joule)
system.mem_ctrl.dram.rank1.selfRefreshEnergy            0                       # Energy for self refresh per rank (pJ) (Joule)
system.mem_ctrl.dram.rank1.totalEnergy   222269896335                       # Total energy per rank (pJ) (Joule)
system.mem_ctrl.dram.rank1.averagePower    549.024629                       # Core power per rank (mW) (Watt)
system.mem_ctrl.dram.rank1.totalIdleTime            0                       # Total Idle time Per DRAM Rank (Tick)
system.mem_ctrl.dram.rank1.pwrStateTime::IDLE  94655063000                       # Time in different power states (Tick)
system.mem_ctrl.dram.rank1.pwrStateTime::REF  13518440000                       # Time in different power states (Tick)
system.mem_ctrl.dram.rank1.pwrStateTime::SREF            0                       # Time in different power states (Tick)
system.mem_ctrl.dram.rank1.pwrStateTime::PRE_PDN            0                       # Time in different power states (Tick)
system.mem_ctrl.dram.rank1.pwrStateTime::ACT 296671534000                       # Time in different power states (Tick)
system.mem_ctrl.dram.rank1.pwrStateTime::ACT_PDN            0                       # Time in different power states (Tick)
system.mem_ctrl.power_state.pwrStateResidencyTicks::UNDEFINED 404845037000                       # Cumulative time (in ticks) in various power states (Tick)
system.membus.transDist::ReadResp             1025504                       # Transaction distribution (Count)
system.membus.transDist::WritebackDirty       1119919                       # Transaction distribution (Count)
system.membus.transDist::CleanEvict            964986                       # Transaction distribution (Count)
system.membus.transDist::ReadExReq            1092466                       # Transaction distribution (Count)
system.membus.transDist::ReadExResp           1092466                       # Transaction distribution (Count)
system.membus.transDist::ReadSharedReq        1025504                       # Transaction distribution (Count)
system.membus.pktCount_system.l2cache.mem_side_port::system.mem_ctrl.port      6320845                       # Packet count per connected requestor and responder (Count)
system.membus.pktCount_system.l2cache.mem_side_port::total      6320845                       # Packet count per connected requestor and responder (Count)
system.membus.pktCount::total                 6320845                       # Packet count per connected requestor and responder (Count)
system.membus.pktSize_system.l2cache.mem_side_port::system.mem_ctrl.port    207224896                       # Cumulative packet size per connected requestor and responder (Byte)
system.membus.pktSize_system.l2cache.mem_side_port::total    207224896                       # Cumulative packet size per connected requestor and responder (Byte)
system.membus.pktSize::total                207224896                       # Cumulative packet size per connected requestor and responder (Byte)
system.membus.snoops                                0                       # Total snoops (Count)
system.membus.snoopTraffic                          0                       # Total snoop traffic (Byte)
system.membus.snoopFanout::samples            2117970                       # Request fanout histogram (Count)
system.membus.snoopFanout::mean                     0                       # Request fanout histogram (Count)
system.membus.snoopFanout::stdev                    0                       # Request fanout histogram (Count)
system.membus.snoopFanout::underflows               0      0.00%      0.00% # Request fanout histogram (Count)
system.membus.snoopFanout::0                  2117970    100.00%    100.00% # Request fanout histogram (Count)
system.membus.snoopFanout::1                        0      0.00%    100.00% # Request fanout histogram (Count)
system.membus.snoopFanout::overflows                0      0.00%    100.00% # Request fanout histogram (Count)
system.membus.snoopFanout::min_value                0                       # Request fanout histogram (Count)
system.membus.snoopFanout::max_value                0                       # Request fanout histogram (Count)
system.membus.snoopFanout::total              2117970                       # Request fanout histogram (Count)
system.membus.power_state.pwrStateResidencyTicks::UNDEFINED 404845037000                       # Cumulative time (in ticks) in various power states (Tick)
system.membus.reqLayer2.occupancy          8682551000                       # Layer occupancy (ticks) (Tick)
system.membus.reqLayer2.utilization               0.0                       # Layer utilization (Ratio)
system.membus.respLayer0.occupancy        11171190250                       # Layer occupancy (ticks) (Tick)
system.membus.respLayer0.utilization              0.0                       # Layer utilization (Ratio)
system.membus.snoop_filter.totRequests        4202875                       # Total number of requests made to the snoop filter. (Count)
system.membus.snoop_filter.hitSingleRequests      2084905                       # Number of requests hitting in the snoop filter with a single holder of the requested data. (Count)
system.membus.snoop_filter.hitMultiRequests            0                       # Number of requests hitting in the snoop filter with multiple (>1) holders of the requested data. (Count)
system.membus.snoop_filter.totSnoops                0                       # Total number of snoops made to the snoop filter. (Count)
system.membus.snoop_filter.hitSingleSnoops            0                       # Number of snoops hitting in the snoop filter with a single holder of the requested data. (Count)
system.membus.snoop_filter.hitMultiSnoops            0                       # Number of snoops hitting in the snoop filter with multiple (>1) holders of the requested data. (Count)
system.workload.inst.arm                            0                       # number of arm instructions executed (Count)
system.workload.inst.quiesce                        0                       # number of quiesce instructions executed (Count)

---------- End Simulation Statistics   ----------
