
---------- Begin Simulation Statistics ----------
simSeconds                                   0.028407                       # Number of seconds simulated (Second)
simTicks                                  28406789000                       # Number of ticks simulated (Tick)
finalTick                                 28406789000                       # Number of ticks from beginning of simulation (restored from checkpoints and never reset) (Tick)
simFreq                                  1000000000000                       # The number of ticks per simulated second ((Tick/Second))
hostSeconds                                    279.53                       # Real time elapsed on the host (Second)
hostTickRate                                101624456                       # The number of ticks simulated per host second (ticks/s) ((Tick/Second))
hostMemory                                    8523472                       # Number of bytes of host memory used (Byte)
simInsts                                     50000001                       # Number of instructions simulated (Count)
simOps                                       94757850                       # Number of ops (including micro ops) simulated (Count)
hostInstRate                                   178873                       # Simulator instruction rate (inst/s) ((Count/Second))
hostOpRate                                     338993                       # Simulator op (including micro ops) rate (op/s) ((Count/Second))
system.clk_domain.clock                          1000                       # Clock period in ticks (Tick)
system.clk_domain.voltage_domain.voltage            1                       # Voltage in Volts (Volt)
system.cpu.numCycles                         28406802                       # Number of cpu cycles simulated (Cycle)
system.cpu.numWorkItemsStarted                      0                       # Number of work items this cpu started (Count)
system.cpu.numWorkItemsCompleted                    0                       # Number of work items this cpu completed (Count)
system.cpu.instsAdded                        99758936                       # Number of instructions added to the IQ (excludes non-spec) (Count)
system.cpu.nonSpecInstsAdded                      274                       # Number of non-speculative instructions added to the IQ (Count)
system.cpu.instsIssued                       97642015                       # Number of instructions issued (Count)
system.cpu.squashedInstsIssued                 350425                       # Number of squashed instructions issued (Count)
system.cpu.squashedInstsExamined              5001247                       # Number of squashed instructions iterated over during squash; mainly for profiling (Count)
system.cpu.squashedOperandsExamined          11109394                       # Number of squashed operands that are examined and possibly removed from graph (Count)
system.cpu.squashedNonSpecRemoved                 238                       # Number of squashed non-spec instructions that were removed (Count)
system.cpu.numIssuedDist::samples            28392739                       # Number of insts issued each cycle (Count)
system.cpu.numIssuedDist::mean               3.438978                       # Number of insts issued each cycle (Count)
system.cpu.numIssuedDist::stdev              1.918904                       # Number of insts issued each cycle (Count)
system.cpu.numIssuedDist::underflows                0      0.00%      0.00% # Number of insts issued each cycle (Count)
system.cpu.numIssuedDist::0                   3617597     12.74%     12.74% # Number of insts issued each cycle (Count)
system.cpu.numIssuedDist::1                   1728836      6.09%     18.83% # Number of insts issued each cycle (Count)
system.cpu.numIssuedDist::2                   3121628     10.99%     29.82% # Number of insts issued each cycle (Count)
system.cpu.numIssuedDist::3                   2825596      9.95%     39.78% # Number of insts issued each cycle (Count)
system.cpu.numIssuedDist::4                   8621829     30.37%     70.14% # Number of insts issued each cycle (Count)
system.cpu.numIssuedDist::5                   5459781     19.23%     89.37% # Number of insts issued each cycle (Count)
system.cpu.numIssuedDist::6                   2060758      7.26%     96.63% # Number of insts issued each cycle (Count)
system.cpu.numIssuedDist::7                    611346      2.15%     98.78% # Number of insts issued each cycle (Count)
system.cpu.numIssuedDist::8                    345368      1.22%    100.00% # Number of insts issued each cycle (Count)
system.cpu.numIssuedDist::overflows                 0      0.00%    100.00% # Number of insts issued each cycle (Count)
system.cpu.numIssuedDist::min_value                 0                       # Number of insts issued each cycle (Count)
system.cpu.numIssuedDist::max_value                 8                       # Number of insts issued each cycle (Count)
system.cpu.numIssuedDist::total              28392739                       # Number of insts issued each cycle (Count)
system.cpu.statFuBusy::No_OpClass                   0      0.00%      0.00% # attempts to use FU when none available (Count)
system.cpu.statFuBusy::IntAlu                12201527     97.75%     97.75% # attempts to use FU when none available (Count)
system.cpu.statFuBusy::IntMult                      0      0.00%     97.75% # attempts to use FU when none available (Count)
system.cpu.statFuBusy::IntDiv                       0      0.00%     97.75% # attempts to use FU when none available (Count)
system.cpu.statFuBusy::FloatAdd                     0      0.00%     97.75% # attempts to use FU when none available (Count)
system.cpu.statFuBusy::FloatCmp                     0      0.00%     97.75% # attempts to use FU when none available (Count)
system.cpu.statFuBusy::FloatCvt                     0      0.00%     97.75% # attempts to use FU when none available (Count)
system.cpu.statFuBusy::FloatMult                    0      0.00%     97.75% # attempts to use FU when none available (Count)
system.cpu.statFuBusy::FloatMultAcc                 0      0.00%     97.75% # attempts to use FU when none available (Count)
system.cpu.statFuBusy::FloatDiv                     0      0.00%     97.75% # attempts to use FU when none available (Count)
system.cpu.statFuBusy::FloatMisc                    0      0.00%     97.75% # attempts to use FU when none available (Count)
system.cpu.statFuBusy::FloatSqrt                    0      0.00%     97.75% # attempts to use FU when none available (Count)
system.cpu.statFuBusy::SimdAdd                      0      0.00%     97.75% # attempts to use FU when none available (Count)
system.cpu.statFuBusy::SimdAddAcc                   0      0.00%     97.75% # attempts to use FU when none available (Count)
system.cpu.statFuBusy::SimdAlu                     14      0.00%     97.75% # attempts to use FU when none available (Count)
system.cpu.statFuBusy::SimdCmp                      0      0.00%     97.75% # attempts to use FU when none available (Count)
system.cpu.statFuBusy::SimdCvt                      8      0.00%     97.75% # attempts to use FU when none available (Count)
system.cpu.statFuBusy::SimdMisc                     0      0.00%     97.75% # attempts to use FU when none available (Count)
system.cpu.statFuBusy::SimdMult                     0      0.00%     97.75% # attempts to use FU when none available (Count)
system.cpu.statFuBusy::SimdMultAcc                  0      0.00%     97.75% # attempts to use FU when none available (Count)
system.cpu.statFuBusy::SimdShift                    0      0.00%     97.75% # attempts to use FU when none available (Count)
system.cpu.statFuBusy::SimdShiftAcc                 0      0.00%     97.75% # attempts to use FU when none available (Count)
system.cpu.statFuBusy::SimdDiv                      0      0.00%     97.75% # attempts to use FU when none available (Count)
system.cpu.statFuBusy::SimdSqrt                     0      0.00%     97.75% # attempts to use FU when none available (Count)
system.cpu.statFuBusy::SimdFloatAdd                 0      0.00%     97.75% # attempts to use FU when none available (Count)
system.cpu.statFuBusy::SimdFloatAlu                 0      0.00%     97.75% # attempts to use FU when none available (Count)
system.cpu.statFuBusy::SimdFloatCmp                 0      0.00%     97.75% # attempts to use FU when none available (Count)
system.cpu.statFuBusy::SimdFloatCvt                 0      0.00%     97.75% # attempts to use FU when none available (Count)
system.cpu.statFuBusy::SimdFloatDiv                 0      0.00%     97.75% # attempts to use FU when none available (Count)
system.cpu.statFuBusy::SimdFloatMisc                0      0.00%     97.75% # attempts to use FU when none available (Count)
system.cpu.statFuBusy::SimdFloatMult                0      0.00%     97.75% # attempts to use FU when none available (Count)
system.cpu.statFuBusy::SimdFloatMultAcc             0      0.00%     97.75% # attempts to use FU when none available (Count)
system.cpu.statFuBusy::SimdFloatSqrt                0      0.00%     97.75% # attempts to use FU when none available (Count)
system.cpu.statFuBusy::SimdReduceAdd                0      0.00%     97.75% # attempts to use FU when none available (Count)
system.cpu.statFuBusy::SimdReduceAlu                0      0.00%     97.75% # attempts to use FU when none available (Count)
system.cpu.statFuBusy::SimdReduceCmp                0      0.00%     97.75% # attempts to use FU when none available (Count)
system.cpu.statFuBusy::SimdFloatReduceAdd            0      0.00%     97.75% # attempts to use FU when none available (Count)
system.cpu.statFuBusy::SimdFloatReduceCmp            0      0.00%     97.75% # attempts to use FU when none available (Count)
system.cpu.statFuBusy::SimdAes                      0      0.00%     97.75% # attempts to use FU when none available (Count)
system.cpu.statFuBusy::SimdAesMix                   0      0.00%     97.75% # attempts to use FU when none available (Count)
system.cpu.statFuBusy::SimdSha1Hash                 0      0.00%     97.75% # attempts to use FU when none available (Count)
system.cpu.statFuBusy::SimdSha1Hash2                0      0.00%     97.75% # attempts to use FU when none available (Count)
system.cpu.statFuBusy::SimdSha256Hash               0      0.00%     97.75% # attempts to use FU when none available (Count)
system.cpu.statFuBusy::SimdSha256Hash2              0      0.00%     97.75% # attempts to use FU when none available (Count)
system.cpu.statFuBusy::SimdShaSigma2                0      0.00%     97.75% # attempts to use FU when none available (Count)
system.cpu.statFuBusy::SimdShaSigma3                0      0.00%     97.75% # attempts to use FU when none available (Count)
system.cpu.statFuBusy::SimdPredAlu                  0      0.00%     97.75% # attempts to use FU when none available (Count)
system.cpu.statFuBusy::MemRead                 132426      1.06%     98.81% # attempts to use FU when none available (Count)
system.cpu.statFuBusy::MemWrite                147821      1.18%    100.00% # attempts to use FU when none available (Count)
system.cpu.statFuBusy::FloatMemRead               268      0.00%    100.00% # attempts to use FU when none available (Count)
system.cpu.statFuBusy::FloatMemWrite               57      0.00%    100.00% # attempts to use FU when none available (Count)
system.cpu.statFuBusy::IprAccess                    0      0.00%    100.00% # attempts to use FU when none available (Count)
system.cpu.statFuBusy::InstPrefetch                 0      0.00%    100.00% # attempts to use FU when none available (Count)
system.cpu.statIssuedInstType_0::No_OpClass       219792      0.23%      0.23% # Number of instructions issued per FU type, per thread (Count)
system.cpu.statIssuedInstType_0::IntAlu      78320114     80.21%     80.44% # Number of instructions issued per FU type, per thread (Count)
system.cpu.statIssuedInstType_0::IntMult       234295      0.24%     80.68% # Number of instructions issued per FU type, per thread (Count)
system.cpu.statIssuedInstType_0::IntDiv            31      0.00%     80.68% # Number of instructions issued per FU type, per thread (Count)
system.cpu.statIssuedInstType_0::FloatAdd        51487      0.05%     80.73% # Number of instructions issued per FU type, per thread (Count)
system.cpu.statIssuedInstType_0::FloatCmp            0      0.00%     80.73% # Number of instructions issued per FU type, per thread (Count)
system.cpu.statIssuedInstType_0::FloatCvt            0      0.00%     80.73% # Number of instructions issued per FU type, per thread (Count)
system.cpu.statIssuedInstType_0::FloatMult            0      0.00%     80.73% # Number of instructions issued per FU type, per thread (Count)
system.cpu.statIssuedInstType_0::FloatMultAcc            0      0.00%     80.73% # Number of instructions issued per FU type, per thread (Count)
system.cpu.statIssuedInstType_0::FloatDiv            0      0.00%     80.73% # Number of instructions issued per FU type, per thread (Count)
system.cpu.statIssuedInstType_0::FloatMisc            0      0.00%     80.73% # Number of instructions issued per FU type, per thread (Count)
system.cpu.statIssuedInstType_0::FloatSqrt            0      0.00%     80.73% # Number of instructions issued per FU type, per thread (Count)
system.cpu.statIssuedInstType_0::SimdAdd            0      0.00%     80.73% # Number of instructions issued per FU type, per thread (Count)
system.cpu.statIssuedInstType_0::SimdAddAcc            0      0.00%     80.73% # Number of instructions issued per FU type, per thread (Count)
system.cpu.statIssuedInstType_0::SimdAlu          176      0.00%     80.73% # Number of instructions issued per FU type, per thread (Count)
system.cpu.statIssuedInstType_0::SimdCmp            0      0.00%     80.73% # Number of instructions issued per FU type, per thread (Count)
system.cpu.statIssuedInstType_0::SimdCvt       119237      0.12%     80.85% # Number of instructions issued per FU type, per thread (Count)
system.cpu.statIssuedInstType_0::SimdMisc       477979      0.49%     81.34% # Number of instructions issued per FU type, per thread (Count)
system.cpu.statIssuedInstType_0::SimdMult            0      0.00%     81.34% # Number of instructions issued per FU type, per thread (Count)
system.cpu.statIssuedInstType_0::SimdMultAcc            0      0.00%     81.34% # Number of instructions issued per FU type, per thread (Count)
system.cpu.statIssuedInstType_0::SimdShift            0      0.00%     81.34% # Number of instructions issued per FU type, per thread (Count)
system.cpu.statIssuedInstType_0::SimdShiftAcc            0      0.00%     81.34% # Number of instructions issued per FU type, per thread (Count)
system.cpu.statIssuedInstType_0::SimdDiv            0      0.00%     81.34% # Number of instructions issued per FU type, per thread (Count)
system.cpu.statIssuedInstType_0::SimdSqrt            0      0.00%     81.34% # Number of instructions issued per FU type, per thread (Count)
system.cpu.statIssuedInstType_0::SimdFloatAdd            0      0.00%     81.34% # Number of instructions issued per FU type, per thread (Count)
system.cpu.statIssuedInstType_0::SimdFloatAlu            0      0.00%     81.34% # Number of instructions issued per FU type, per thread (Count)
system.cpu.statIssuedInstType_0::SimdFloatCmp            0      0.00%     81.34% # Number of instructions issued per FU type, per thread (Count)
system.cpu.statIssuedInstType_0::SimdFloatCvt            0      0.00%     81.34% # Number of instructions issued per FU type, per thread (Count)
system.cpu.statIssuedInstType_0::SimdFloatDiv            0      0.00%     81.34% # Number of instructions issued per FU type, per thread (Count)
system.cpu.statIssuedInstType_0::SimdFloatMisc            0      0.00%     81.34% # Number of instructions issued per FU type, per thread (Count)
system.cpu.statIssuedInstType_0::SimdFloatMult            0      0.00%     81.34% # Number of instructions issued per FU type, per thread (Count)
system.cpu.statIssuedInstType_0::SimdFloatMultAcc            0      0.00%     81.34% # Number of instructions issued per FU type, per thread (Count)
system.cpu.statIssuedInstType_0::SimdFloatSqrt            0      0.00%     81.34% # Number of instructions issued per FU type, per thread (Count)
system.cpu.statIssuedInstType_0::SimdReduceAdd            0      0.00%     81.34% # Number of instructions issued per FU type, per thread (Count)
system.cpu.statIssuedInstType_0::SimdReduceAlu            0      0.00%     81.34% # Number of instructions issued per FU type, per thread (Count)
system.cpu.statIssuedInstType_0::SimdReduceCmp            0      0.00%     81.34% # Number of instructions issued per FU type, per thread (Count)
system.cpu.statIssuedInstType_0::SimdFloatReduceAdd            0      0.00%     81.34% # Number of instructions issued per FU type, per thread (Count)
system.cpu.statIssuedInstType_0::SimdFloatReduceCmp            0      0.00%     81.34% # Number of instructions issued per FU type, per thread (Count)
system.cpu.statIssuedInstType_0::SimdAes            0      0.00%     81.34% # Number of instructions issued per FU type, per thread (Count)
system.cpu.statIssuedInstType_0::SimdAesMix            0      0.00%     81.34% # Number of instructions issued per FU type, per thread (Count)
system.cpu.statIssuedInstType_0::SimdSha1Hash            0      0.00%     81.34% # Number of instructions issued per FU type, per thread (Count)
system.cpu.statIssuedInstType_0::SimdSha1Hash2            0      0.00%     81.34% # Number of instructions issued per FU type, per thread (Count)
system.cpu.statIssuedInstType_0::SimdSha256Hash            0      0.00%     81.34% # Number of instructions issued per FU type, per thread (Count)
system.cpu.statIssuedInstType_0::SimdSha256Hash2            0      0.00%     81.34% # Number of instructions issued per FU type, per thread (Count)
system.cpu.statIssuedInstType_0::SimdShaSigma2            0      0.00%     81.34% # Number of instructions issued per FU type, per thread (Count)
system.cpu.statIssuedInstType_0::SimdShaSigma3            0      0.00%     81.34% # Number of instructions issued per FU type, per thread (Count)
system.cpu.statIssuedInstType_0::SimdPredAlu            0      0.00%     81.34% # Number of instructions issued per FU type, per thread (Count)
system.cpu.statIssuedInstType_0::MemRead     10972404     11.24%     92.58% # Number of instructions issued per FU type, per thread (Count)
system.cpu.statIssuedInstType_0::MemWrite      7105497      7.28%     99.86% # Number of instructions issued per FU type, per thread (Count)
system.cpu.statIssuedInstType_0::FloatMemRead       140658      0.14%    100.00% # Number of instructions issued per FU type, per thread (Count)
system.cpu.statIssuedInstType_0::FloatMemWrite          345      0.00%    100.00% # Number of instructions issued per FU type, per thread (Count)
system.cpu.statIssuedInstType_0::IprAccess            0      0.00%    100.00% # Number of instructions issued per FU type, per thread (Count)
system.cpu.statIssuedInstType_0::InstPrefetch            0      0.00%    100.00% # Number of instructions issued per FU type, per thread (Count)
system.cpu.statIssuedInstType_0::total       97642015                       # Number of instructions issued per FU type, per thread (Count)
system.cpu.issueRate                         3.437276                       # Inst issue rate ((Count/Cycle))
system.cpu.fuBusy                            12482121                       # FU busy when requested (Count)
system.cpu.fuBusyRate                        0.127836                       # FU busy rate (busy events/executed inst) ((Count/Count))
system.cpu.intInstQueueReads                234826781                       # Number of integer instruction queue reads (Count)
system.cpu.intInstQueueWrites               103846712                       # Number of integer instruction queue writes (Count)
system.cpu.intInstQueueWakeupAccesses        96578101                       # Number of integer instruction queue wakeup accesses (Count)
system.cpu.fpInstQueueReads                   1682528                       # Number of floating instruction queue reads (Count)
system.cpu.fpInstQueueWrites                   915472                       # Number of floating instruction queue writes (Count)
system.cpu.fpInstQueueWakeupAccesses           819396                       # Number of floating instruction queue wakeup accesses (Count)
system.cpu.vecInstQueueReads                        0                       # Number of vector instruction queue reads (Count)
system.cpu.vecInstQueueWrites                       0                       # Number of vector instruction queue writes (Count)
system.cpu.vecInstQueueWakeupAccesses               0                       # Number of vector instruction queue wakeup accesses (Count)
system.cpu.intAluAccesses                   109062908                       # Number of integer alu accesses (Count)
system.cpu.fpAluAccesses                       841436                       # Number of floating point alu accesses (Count)
system.cpu.vecAluAccesses                           0                       # Number of vector alu accesses (Count)
system.cpu.numInsts                          97475241                       # Number of executed instructions (Count)
system.cpu.numLoadInsts                      11026534                       # Number of load instructions executed (Count)
system.cpu.numSquashedInsts                    166768                       # Number of squashed instructions skipped in execute (Count)
system.cpu.numSwp                                   0                       # Number of swp insts executed (Count)
system.cpu.numNop                                   0                       # Number of nop insts executed (Count)
system.cpu.numRefs                           18098248                       # Number of memory reference insts executed (Count)
system.cpu.numBranches                       12022832                       # Number of branches executed (Count)
system.cpu.numStoreInsts                      7071714                       # Number of stores executed (Count)
system.cpu.numRate                           3.431405                       # Inst execution rate ((Count/Cycle))
system.cpu.timesIdled                             306                       # Number of times that the entire CPU went into an idle state and unscheduled itself (Count)
system.cpu.idleCycles                           14063                       # Total number of cycles that the CPU has spent unscheduled due to idling (Cycle)
system.cpu.committedInsts                    50000001                       # Number of Instructions Simulated (Count)
system.cpu.committedOps                      94757850                       # Number of Ops (including micro ops) Simulated (Count)
system.cpu.cpi                               0.568136                       # CPI: Cycles Per Instruction ((Cycle/Count))
system.cpu.totalCpi                          0.568136                       # CPI: Total CPI of All Threads ((Cycle/Count))
system.cpu.ipc                               1.760142                       # IPC: Instructions Per Cycle ((Count/Cycle))
system.cpu.totalIpc                          1.760142                       # IPC: Total IPC of All Threads ((Count/Cycle))
system.cpu.intRegfileReads                  120806441                       # Number of integer regfile reads (Count)
system.cpu.intRegfileWrites                  67382227                       # Number of integer regfile writes (Count)
system.cpu.fpRegfileReads                     1349260                       # Number of floating regfile reads (Count)
system.cpu.fpRegfileWrites                     700951                       # Number of floating regfile writes (Count)
system.cpu.ccRegfileReads                    61553007                       # number of cc regfile reads (Count)
system.cpu.ccRegfileWrites                   31432611                       # number of cc regfile writes (Count)
system.cpu.miscRegfileReads                  41725896                       # number of misc regfile reads (Count)
system.cpu.MemDepUnit__0.insertedLoads       11210146                       # Number of loads inserted to the mem dependence unit. (Count)
system.cpu.MemDepUnit__0.insertedStores       7216054                       # Number of stores inserted to the mem dependence unit. (Count)
system.cpu.MemDepUnit__0.conflictingLoads      1952740                       # Number of conflicting loads. (Count)
system.cpu.MemDepUnit__0.conflictingStores       821682                       # Number of conflicting stores. (Count)
system.cpu.MemDepUnit__1.insertedLoads              0                       # Number of loads inserted to the mem dependence unit. (Count)
system.cpu.MemDepUnit__1.insertedStores             0                       # Number of stores inserted to the mem dependence unit. (Count)
system.cpu.MemDepUnit__1.conflictingLoads            0                       # Number of conflicting loads. (Count)
system.cpu.MemDepUnit__1.conflictingStores            0                       # Number of conflicting stores. (Count)
system.cpu.MemDepUnit__2.insertedLoads              0                       # Number of loads inserted to the mem dependence unit. (Count)
system.cpu.MemDepUnit__2.insertedStores             0                       # Number of stores inserted to the mem dependence unit. (Count)
system.cpu.MemDepUnit__2.conflictingLoads            0                       # Number of conflicting loads. (Count)
system.cpu.MemDepUnit__2.conflictingStores            0                       # Number of conflicting stores. (Count)
system.cpu.MemDepUnit__3.insertedLoads              0                       # Number of loads inserted to the mem dependence unit. (Count)
system.cpu.MemDepUnit__3.insertedStores             0                       # Number of stores inserted to the mem dependence unit. (Count)
system.cpu.MemDepUnit__3.conflictingLoads            0                       # Number of conflicting loads. (Count)
system.cpu.MemDepUnit__3.conflictingStores            0                       # Number of conflicting stores. (Count)
system.cpu.branchPred.lookups                12672994                       # Number of BP lookups (Count)
system.cpu.branchPred.condPredicted          10283739                       # Number of conditional branches predicted (Count)
system.cpu.branchPred.condIncorrect             56023                       # Number of conditional branches incorrect (Count)
system.cpu.branchPred.BTBLookups              4454926                       # Number of BTB lookups (Count)
system.cpu.branchPred.BTBHits                 4451635                       # Number of BTB hits (Count)
system.cpu.branchPred.BTBHitRatio            0.999261                       # BTB Hit Ratio (Ratio)
system.cpu.branchPred.RASUsed                  524805                       # Number of times the RAS was used to get a target. (Count)
system.cpu.branchPred.RASIncorrect                 10                       # Number of incorrect RAS predictions. (Count)
system.cpu.branchPred.indirectLookups          140740                       # Number of indirect predictor lookups. (Count)
system.cpu.branchPred.indirectHits             140502                       # Number of indirect target hits. (Count)
system.cpu.branchPred.indirectMisses              238                       # Number of indirect misses. (Count)
system.cpu.branchPred.indirectMispredicted           88                       # Number of mispredicted indirect branches. (Count)
system.cpu.commit.commitSquashedInsts         4989898                       # The number of squashed insts skipped by commit (Count)
system.cpu.commit.commitNonSpecStalls              36                       # The number of times commit has been forced to stall to communicate backwards (Count)
system.cpu.commit.branchMispredicts             55723                       # The number of times a branch was mispredicted (Count)
system.cpu.commit.numCommittedDist::samples     27741235                       # Number of insts commited each cycle (Count)
system.cpu.commit.numCommittedDist::mean     3.415776                       # Number of insts commited each cycle (Count)
system.cpu.commit.numCommittedDist::stdev     3.521056                       # Number of insts commited each cycle (Count)
system.cpu.commit.numCommittedDist::underflows            0      0.00%      0.00% # Number of insts commited each cycle (Count)
system.cpu.commit.numCommittedDist::0        10969460     39.54%     39.54% # Number of insts commited each cycle (Count)
system.cpu.commit.numCommittedDist::1         2107712      7.60%     47.14% # Number of insts commited each cycle (Count)
system.cpu.commit.numCommittedDist::2         1721067      6.20%     53.34% # Number of insts commited each cycle (Count)
system.cpu.commit.numCommittedDist::3         1504321      5.42%     58.77% # Number of insts commited each cycle (Count)
system.cpu.commit.numCommittedDist::4          908124      3.27%     62.04% # Number of insts commited each cycle (Count)
system.cpu.commit.numCommittedDist::5          547062      1.97%     64.01% # Number of insts commited each cycle (Count)
system.cpu.commit.numCommittedDist::6          516178      1.86%     65.87% # Number of insts commited each cycle (Count)
system.cpu.commit.numCommittedDist::7          508321      1.83%     67.71% # Number of insts commited each cycle (Count)
system.cpu.commit.numCommittedDist::8         8958990     32.29%    100.00% # Number of insts commited each cycle (Count)
system.cpu.commit.numCommittedDist::overflows            0      0.00%    100.00% # Number of insts commited each cycle (Count)
system.cpu.commit.numCommittedDist::min_value            0                       # Number of insts commited each cycle (Count)
system.cpu.commit.numCommittedDist::max_value            8                       # Number of insts commited each cycle (Count)
system.cpu.commit.numCommittedDist::total     27741235                       # Number of insts commited each cycle (Count)
system.cpu.commit.instsCommitted             50000001                       # Number of instructions committed (Count)
system.cpu.commit.opsCommitted               94757850                       # Number of ops (including micro ops) committed (Count)
system.cpu.commit.memRefs                    17616402                       # Number of memory references committed (Count)
system.cpu.commit.loads                      10653362                       # Number of loads committed (Count)
system.cpu.commit.amos                              0                       # Number of atomic instructions committed (Count)
system.cpu.commit.membars                          24                       # Number of memory barriers committed (Count)
system.cpu.commit.branches                   11816953                       # Number of branches committed (Count)
system.cpu.commit.vectorInstructions                0                       # Number of committed Vector instructions. (Count)
system.cpu.commit.floating                     797407                       # Number of committed floating point instructions. (Count)
system.cpu.commit.integer                    93840958                       # Number of committed integer instructions. (Count)
system.cpu.commit.functionCalls                489611                       # Number of function calls committed. (Count)
system.cpu.commit.committedInstType_0::No_OpClass       206366      0.22%      0.22% # Class of committed instruction (Count)
system.cpu.commit.committedInstType_0::IntAlu     76071906     80.28%     80.50% # Class of committed instruction (Count)
system.cpu.commit.committedInstType_0::IntMult       230150      0.24%     80.74% # Class of committed instruction (Count)
system.cpu.commit.committedInstType_0::IntDiv           28      0.00%     80.74% # Class of committed instruction (Count)
system.cpu.commit.committedInstType_0::FloatAdd        50759      0.05%     80.79% # Class of committed instruction (Count)
system.cpu.commit.committedInstType_0::FloatCmp            0      0.00%     80.79% # Class of committed instruction (Count)
system.cpu.commit.committedInstType_0::FloatCvt            0      0.00%     80.79% # Class of committed instruction (Count)
system.cpu.commit.committedInstType_0::FloatMult            0      0.00%     80.79% # Class of committed instruction (Count)
system.cpu.commit.committedInstType_0::FloatMultAcc            0      0.00%     80.79% # Class of committed instruction (Count)
system.cpu.commit.committedInstType_0::FloatDiv            0      0.00%     80.79% # Class of committed instruction (Count)
system.cpu.commit.committedInstType_0::FloatMisc            0      0.00%     80.79% # Class of committed instruction (Count)
system.cpu.commit.committedInstType_0::FloatSqrt            0      0.00%     80.79% # Class of committed instruction (Count)
system.cpu.commit.committedInstType_0::SimdAdd            0      0.00%     80.79% # Class of committed instruction (Count)
system.cpu.commit.committedInstType_0::SimdAddAcc            0      0.00%     80.79% # Class of committed instruction (Count)
system.cpu.commit.committedInstType_0::SimdAlu           98      0.00%     80.79% # Class of committed instruction (Count)
system.cpu.commit.committedInstType_0::SimdCmp            0      0.00%     80.79% # Class of committed instruction (Count)
system.cpu.commit.committedInstType_0::SimdCvt       113412      0.12%     80.91% # Class of committed instruction (Count)
system.cpu.commit.committedInstType_0::SimdMisc       468729      0.49%     81.41% # Class of committed instruction (Count)
system.cpu.commit.committedInstType_0::SimdMult            0      0.00%     81.41% # Class of committed instruction (Count)
system.cpu.commit.committedInstType_0::SimdMultAcc            0      0.00%     81.41% # Class of committed instruction (Count)
system.cpu.commit.committedInstType_0::SimdShift            0      0.00%     81.41% # Class of committed instruction (Count)
system.cpu.commit.committedInstType_0::SimdShiftAcc            0      0.00%     81.41% # Class of committed instruction (Count)
system.cpu.commit.committedInstType_0::SimdDiv            0      0.00%     81.41% # Class of committed instruction (Count)
system.cpu.commit.committedInstType_0::SimdSqrt            0      0.00%     81.41% # Class of committed instruction (Count)
system.cpu.commit.committedInstType_0::SimdFloatAdd            0      0.00%     81.41% # Class of committed instruction (Count)
system.cpu.commit.committedInstType_0::SimdFloatAlu            0      0.00%     81.41% # Class of committed instruction (Count)
system.cpu.commit.committedInstType_0::SimdFloatCmp            0      0.00%     81.41% # Class of committed instruction (Count)
system.cpu.commit.committedInstType_0::SimdFloatCvt            0      0.00%     81.41% # Class of committed instruction (Count)
system.cpu.commit.committedInstType_0::SimdFloatDiv            0      0.00%     81.41% # Class of committed instruction (Count)
system.cpu.commit.committedInstType_0::SimdFloatMisc            0      0.00%     81.41% # Class of committed instruction (Count)
system.cpu.commit.committedInstType_0::SimdFloatMult            0      0.00%     81.41% # Class of committed instruction (Count)
system.cpu.commit.committedInstType_0::SimdFloatMultAcc            0      0.00%     81.41% # Class of committed instruction (Count)
system.cpu.commit.committedInstType_0::SimdFloatSqrt            0      0.00%     81.41% # Class of committed instruction (Count)
system.cpu.commit.committedInstType_0::SimdReduceAdd            0      0.00%     81.41% # Class of committed instruction (Count)
system.cpu.commit.committedInstType_0::SimdReduceAlu            0      0.00%     81.41% # Class of committed instruction (Count)
system.cpu.commit.committedInstType_0::SimdReduceCmp            0      0.00%     81.41% # Class of committed instruction (Count)
system.cpu.commit.committedInstType_0::SimdFloatReduceAdd            0      0.00%     81.41% # Class of committed instruction (Count)
system.cpu.commit.committedInstType_0::SimdFloatReduceCmp            0      0.00%     81.41% # Class of committed instruction (Count)
system.cpu.commit.committedInstType_0::SimdAes            0      0.00%     81.41% # Class of committed instruction (Count)
system.cpu.commit.committedInstType_0::SimdAesMix            0      0.00%     81.41% # Class of committed instruction (Count)
system.cpu.commit.committedInstType_0::SimdSha1Hash            0      0.00%     81.41% # Class of committed instruction (Count)
system.cpu.commit.committedInstType_0::SimdSha1Hash2            0      0.00%     81.41% # Class of committed instruction (Count)
system.cpu.commit.committedInstType_0::SimdSha256Hash            0      0.00%     81.41% # Class of committed instruction (Count)
system.cpu.commit.committedInstType_0::SimdSha256Hash2            0      0.00%     81.41% # Class of committed instruction (Count)
system.cpu.commit.committedInstType_0::SimdShaSigma2            0      0.00%     81.41% # Class of committed instruction (Count)
system.cpu.commit.committedInstType_0::SimdShaSigma3            0      0.00%     81.41% # Class of committed instruction (Count)
system.cpu.commit.committedInstType_0::SimdPredAlu            0      0.00%     81.41% # Class of committed instruction (Count)
system.cpu.commit.committedInstType_0::MemRead     10539958     11.12%     92.53% # Class of committed instruction (Count)
system.cpu.commit.committedInstType_0::MemWrite      6962800      7.35%     99.88% # Class of committed instruction (Count)
system.cpu.commit.committedInstType_0::FloatMemRead       113404      0.12%    100.00% # Class of committed instruction (Count)
system.cpu.commit.committedInstType_0::FloatMemWrite          240      0.00%    100.00% # Class of committed instruction (Count)
system.cpu.commit.committedInstType_0::IprAccess            0      0.00%    100.00% # Class of committed instruction (Count)
system.cpu.commit.committedInstType_0::InstPrefetch            0      0.00%    100.00% # Class of committed instruction (Count)
system.cpu.commit.committedInstType_0::total     94757850                       # Class of committed instruction (Count)
system.cpu.commit.commitEligibleSamples       8958990                       # number cycles where commit BW limit reached (Cycle)
system.cpu.dcache.demandHits::cpu.data       14550844                       # number of demand (read+write) hits (Count)
system.cpu.dcache.demandHits::total          14550844                       # number of demand (read+write) hits (Count)
system.cpu.dcache.overallHits::cpu.data      14550844                       # number of overall hits (Count)
system.cpu.dcache.overallHits::total         14550844                       # number of overall hits (Count)
system.cpu.dcache.demandMisses::cpu.data        51428                       # number of demand (read+write) misses (Count)
system.cpu.dcache.demandMisses::total           51428                       # number of demand (read+write) misses (Count)
system.cpu.dcache.overallMisses::cpu.data        51428                       # number of overall misses (Count)
system.cpu.dcache.overallMisses::total          51428                       # number of overall misses (Count)
system.cpu.dcache.demandMissLatency::cpu.data   3836325000                       # number of demand (read+write) miss ticks (Tick)
system.cpu.dcache.demandMissLatency::total   3836325000                       # number of demand (read+write) miss ticks (Tick)
system.cpu.dcache.overallMissLatency::cpu.data   3836325000                       # number of overall miss ticks (Tick)
system.cpu.dcache.overallMissLatency::total   3836325000                       # number of overall miss ticks (Tick)
system.cpu.dcache.demandAccesses::cpu.data     14602272                       # number of demand (read+write) accesses (Count)
system.cpu.dcache.demandAccesses::total      14602272                       # number of demand (read+write) accesses (Count)
system.cpu.dcache.overallAccesses::cpu.data     14602272                       # number of overall (read+write) accesses (Count)
system.cpu.dcache.overallAccesses::total     14602272                       # number of overall (read+write) accesses (Count)
system.cpu.dcache.demandMissRate::cpu.data     0.003522                       # miss rate for demand accesses (Ratio)
system.cpu.dcache.demandMissRate::total      0.003522                       # miss rate for demand accesses (Ratio)
system.cpu.dcache.overallMissRate::cpu.data     0.003522                       # miss rate for overall accesses (Ratio)
system.cpu.dcache.overallMissRate::total     0.003522                       # miss rate for overall accesses (Ratio)
system.cpu.dcache.demandAvgMissLatency::cpu.data 74596.037178                       # average overall miss latency in ticks ((Tick/Count))
system.cpu.dcache.demandAvgMissLatency::total 74596.037178                       # average overall miss latency in ticks ((Tick/Count))
system.cpu.dcache.overallAvgMissLatency::cpu.data 74596.037178                       # average overall miss latency ((Tick/Count))
system.cpu.dcache.overallAvgMissLatency::total 74596.037178                       # average overall miss latency ((Tick/Count))
system.cpu.dcache.blockedCycles::no_mshrs        17369                       # number of cycles access was blocked (Cycle)
system.cpu.dcache.blockedCycles::no_targets            0                       # number of cycles access was blocked (Cycle)
system.cpu.dcache.blockedCauses::no_mshrs          691                       # number of times access was blocked (Count)
system.cpu.dcache.blockedCauses::no_targets            0                       # number of times access was blocked (Count)
system.cpu.dcache.avgBlocked::no_mshrs      25.136035                       # average number of cycles each access was blocked ((Cycle/Count))
system.cpu.dcache.avgBlocked::no_targets          nan                       # average number of cycles each access was blocked ((Cycle/Count))
system.cpu.dcache.writebacks::writebacks        61429                       # number of writebacks (Count)
system.cpu.dcache.writebacks::total             61429                       # number of writebacks (Count)
system.cpu.dcache.demandMshrHits::cpu.data        11162                       # number of demand (read+write) MSHR hits (Count)
system.cpu.dcache.demandMshrHits::total         11162                       # number of demand (read+write) MSHR hits (Count)
system.cpu.dcache.overallMshrHits::cpu.data        11162                       # number of overall MSHR hits (Count)
system.cpu.dcache.overallMshrHits::total        11162                       # number of overall MSHR hits (Count)
system.cpu.dcache.demandMshrMisses::cpu.data        40266                       # number of demand (read+write) MSHR misses (Count)
system.cpu.dcache.demandMshrMisses::total        40266                       # number of demand (read+write) MSHR misses (Count)
system.cpu.dcache.overallMshrMisses::cpu.data        40266                       # number of overall MSHR misses (Count)
system.cpu.dcache.overallMshrMisses::cpu.dcache.prefetcher        24985                       # number of overall MSHR misses (Count)
system.cpu.dcache.overallMshrMisses::total        65251                       # number of overall MSHR misses (Count)
system.cpu.dcache.demandMshrMissLatency::cpu.data   3249584000                       # number of demand (read+write) MSHR miss ticks (Tick)
system.cpu.dcache.demandMshrMissLatency::total   3249584000                       # number of demand (read+write) MSHR miss ticks (Tick)
system.cpu.dcache.overallMshrMissLatency::cpu.data   3249584000                       # number of overall MSHR miss ticks (Tick)
system.cpu.dcache.overallMshrMissLatency::cpu.dcache.prefetcher   2175324135                       # number of overall MSHR miss ticks (Tick)
system.cpu.dcache.overallMshrMissLatency::total   5424908135                       # number of overall MSHR miss ticks (Tick)
system.cpu.dcache.demandMshrMissRate::cpu.data     0.002758                       # mshr miss ratio for demand accesses (Ratio)
system.cpu.dcache.demandMshrMissRate::total     0.002758                       # mshr miss ratio for demand accesses (Ratio)
system.cpu.dcache.overallMshrMissRate::cpu.data     0.002758                       # mshr miss ratio for overall accesses (Ratio)
system.cpu.dcache.overallMshrMissRate::cpu.dcache.prefetcher          inf                       # mshr miss ratio for overall accesses (Ratio)
system.cpu.dcache.overallMshrMissRate::total     0.004469                       # mshr miss ratio for overall accesses (Ratio)
system.cpu.dcache.demandAvgMshrMissLatency::cpu.data 80702.925545                       # average overall mshr miss latency ((Tick/Count))
system.cpu.dcache.demandAvgMshrMissLatency::total 80702.925545                       # average overall mshr miss latency ((Tick/Count))
system.cpu.dcache.overallAvgMshrMissLatency::cpu.data 80702.925545                       # average overall mshr miss latency ((Tick/Count))
system.cpu.dcache.overallAvgMshrMissLatency::cpu.dcache.prefetcher 87065.204523                       # average overall mshr miss latency ((Tick/Count))
system.cpu.dcache.overallAvgMshrMissLatency::total 83139.080397                       # average overall mshr miss latency ((Tick/Count))
system.cpu.dcache.replacements                  64227                       # number of replacements (Count)
system.cpu.dcache.HardPFReq.mshrMisses::cpu.dcache.prefetcher        24985                       # number of HardPFReq MSHR misses (Count)
system.cpu.dcache.HardPFReq.mshrMisses::total        24985                       # number of HardPFReq MSHR misses (Count)
system.cpu.dcache.HardPFReq.mshrMissLatency::cpu.dcache.prefetcher   2175324135                       # number of HardPFReq MSHR miss ticks (Tick)
system.cpu.dcache.HardPFReq.mshrMissLatency::total   2175324135                       # number of HardPFReq MSHR miss ticks (Tick)
system.cpu.dcache.HardPFReq.mshrMissRate::cpu.dcache.prefetcher          inf                       # mshr miss rate for HardPFReq accesses (Ratio)
system.cpu.dcache.HardPFReq.mshrMissRate::total          inf                       # mshr miss rate for HardPFReq accesses (Ratio)
system.cpu.dcache.HardPFReq.avgMshrMissLatency::cpu.dcache.prefetcher 87065.204523                       # average HardPFReq mshr miss latency ((Tick/Count))
system.cpu.dcache.HardPFReq.avgMshrMissLatency::total 87065.204523                       # average HardPFReq mshr miss latency ((Tick/Count))
system.cpu.dcache.LockedRMWReadReq.hits::cpu.data           12                       # number of LockedRMWReadReq hits (Count)
system.cpu.dcache.LockedRMWReadReq.hits::total           12                       # number of LockedRMWReadReq hits (Count)
system.cpu.dcache.LockedRMWReadReq.accesses::cpu.data           12                       # number of LockedRMWReadReq accesses(hits+misses) (Count)
system.cpu.dcache.LockedRMWReadReq.accesses::total           12                       # number of LockedRMWReadReq accesses(hits+misses) (Count)
system.cpu.dcache.LockedRMWReadReq.mshrMissLatency::cpu.data       165000                       # number of LockedRMWReadReq MSHR miss ticks (Tick)
system.cpu.dcache.LockedRMWReadReq.mshrMissLatency::total       165000                       # number of LockedRMWReadReq MSHR miss ticks (Tick)
system.cpu.dcache.LockedRMWReadReq.avgMshrMissLatency::cpu.data          inf                       # average LockedRMWReadReq mshr miss latency ((Tick/Count))
system.cpu.dcache.LockedRMWReadReq.avgMshrMissLatency::total          inf                       # average LockedRMWReadReq mshr miss latency ((Tick/Count))
system.cpu.dcache.LockedRMWWriteReq.hits::cpu.data           12                       # number of LockedRMWWriteReq hits (Count)
system.cpu.dcache.LockedRMWWriteReq.hits::total           12                       # number of LockedRMWWriteReq hits (Count)
system.cpu.dcache.LockedRMWWriteReq.accesses::cpu.data           12                       # number of LockedRMWWriteReq accesses(hits+misses) (Count)
system.cpu.dcache.LockedRMWWriteReq.accesses::total           12                       # number of LockedRMWWriteReq accesses(hits+misses) (Count)
system.cpu.dcache.ReadReq.hits::cpu.data      7615830                       # number of ReadReq hits (Count)
system.cpu.dcache.ReadReq.hits::total         7615830                       # number of ReadReq hits (Count)
system.cpu.dcache.ReadReq.misses::cpu.data        23475                       # number of ReadReq misses (Count)
system.cpu.dcache.ReadReq.misses::total         23475                       # number of ReadReq misses (Count)
system.cpu.dcache.ReadReq.missLatency::cpu.data   1510022000                       # number of ReadReq miss ticks (Tick)
system.cpu.dcache.ReadReq.missLatency::total   1510022000                       # number of ReadReq miss ticks (Tick)
system.cpu.dcache.ReadReq.accesses::cpu.data      7639305                       # number of ReadReq accesses(hits+misses) (Count)
system.cpu.dcache.ReadReq.accesses::total      7639305                       # number of ReadReq accesses(hits+misses) (Count)
system.cpu.dcache.ReadReq.missRate::cpu.data     0.003073                       # miss rate for ReadReq accesses (Ratio)
system.cpu.dcache.ReadReq.missRate::total     0.003073                       # miss rate for ReadReq accesses (Ratio)
system.cpu.dcache.ReadReq.avgMissLatency::cpu.data 64324.685836                       # average ReadReq miss latency ((Tick/Count))
system.cpu.dcache.ReadReq.avgMissLatency::total 64324.685836                       # average ReadReq miss latency ((Tick/Count))
system.cpu.dcache.ReadReq.mshrHits::cpu.data         8930                       # number of ReadReq MSHR hits (Count)
system.cpu.dcache.ReadReq.mshrHits::total         8930                       # number of ReadReq MSHR hits (Count)
system.cpu.dcache.ReadReq.mshrMisses::cpu.data        14545                       # number of ReadReq MSHR misses (Count)
system.cpu.dcache.ReadReq.mshrMisses::total        14545                       # number of ReadReq MSHR misses (Count)
system.cpu.dcache.ReadReq.mshrMissLatency::cpu.data   1035637000                       # number of ReadReq MSHR miss ticks (Tick)
system.cpu.dcache.ReadReq.mshrMissLatency::total   1035637000                       # number of ReadReq MSHR miss ticks (Tick)
system.cpu.dcache.ReadReq.mshrMissRate::cpu.data     0.001904                       # mshr miss rate for ReadReq accesses (Ratio)
system.cpu.dcache.ReadReq.mshrMissRate::total     0.001904                       # mshr miss rate for ReadReq accesses (Ratio)
system.cpu.dcache.ReadReq.avgMshrMissLatency::cpu.data 71202.268821                       # average ReadReq mshr miss latency ((Tick/Count))
system.cpu.dcache.ReadReq.avgMshrMissLatency::total 71202.268821                       # average ReadReq mshr miss latency ((Tick/Count))
system.cpu.dcache.WriteReq.hits::cpu.data      6935014                       # number of WriteReq hits (Count)
system.cpu.dcache.WriteReq.hits::total        6935014                       # number of WriteReq hits (Count)
system.cpu.dcache.WriteReq.misses::cpu.data        27953                       # number of WriteReq misses (Count)
system.cpu.dcache.WriteReq.misses::total        27953                       # number of WriteReq misses (Count)
system.cpu.dcache.WriteReq.missLatency::cpu.data   2326303000                       # number of WriteReq miss ticks (Tick)
system.cpu.dcache.WriteReq.missLatency::total   2326303000                       # number of WriteReq miss ticks (Tick)
system.cpu.dcache.WriteReq.accesses::cpu.data      6962967                       # number of WriteReq accesses(hits+misses) (Count)
system.cpu.dcache.WriteReq.accesses::total      6962967                       # number of WriteReq accesses(hits+misses) (Count)
system.cpu.dcache.WriteReq.missRate::cpu.data     0.004015                       # miss rate for WriteReq accesses (Ratio)
system.cpu.dcache.WriteReq.missRate::total     0.004015                       # miss rate for WriteReq accesses (Ratio)
system.cpu.dcache.WriteReq.avgMissLatency::cpu.data 83221.943977                       # average WriteReq miss latency ((Tick/Count))
system.cpu.dcache.WriteReq.avgMissLatency::total 83221.943977                       # average WriteReq miss latency ((Tick/Count))
system.cpu.dcache.WriteReq.mshrHits::cpu.data         2232                       # number of WriteReq MSHR hits (Count)
system.cpu.dcache.WriteReq.mshrHits::total         2232                       # number of WriteReq MSHR hits (Count)
system.cpu.dcache.WriteReq.mshrMisses::cpu.data        25721                       # number of WriteReq MSHR misses (Count)
system.cpu.dcache.WriteReq.mshrMisses::total        25721                       # number of WriteReq MSHR misses (Count)
system.cpu.dcache.WriteReq.mshrMissLatency::cpu.data   2213947000                       # number of WriteReq MSHR miss ticks (Tick)
system.cpu.dcache.WriteReq.mshrMissLatency::total   2213947000                       # number of WriteReq MSHR miss ticks (Tick)
system.cpu.dcache.WriteReq.mshrMissRate::cpu.data     0.003694                       # mshr miss rate for WriteReq accesses (Ratio)
system.cpu.dcache.WriteReq.mshrMissRate::total     0.003694                       # mshr miss rate for WriteReq accesses (Ratio)
system.cpu.dcache.WriteReq.avgMshrMissLatency::cpu.data 86075.463629                       # average WriteReq mshr miss latency ((Tick/Count))
system.cpu.dcache.WriteReq.avgMshrMissLatency::total 86075.463629                       # average WriteReq mshr miss latency ((Tick/Count))
system.cpu.dcache.power_state.pwrStateResidencyTicks::UNDEFINED  28406789000                       # Cumulative time (in ticks) in various power states (Tick)
system.cpu.dcache.prefetcher.demandMshrMisses        40266                       # demands not covered by prefetchs (Count)
system.cpu.dcache.prefetcher.pfIssued           25417                       # number of hwpf issued (Count)
system.cpu.dcache.prefetcher.pfUnused              17                       # number of HardPF blocks evicted w/o reference (Count)
system.cpu.dcache.prefetcher.pfUseful           24961                       # number of useful prefetch (Count)
system.cpu.dcache.prefetcher.pfUsefulButMiss            0                       # number of hit on prefetch but cache block is not in an usable state (Count)
system.cpu.dcache.prefetcher.accuracy        0.982059                       # accuracy of the prefetcher (Count)
system.cpu.dcache.prefetcher.coverage        0.382679                       # coverage brought by this prefetcher (Count)
system.cpu.dcache.prefetcher.pfHitInCache          432                       # number of prefetches hitting in cache (Count)
system.cpu.dcache.prefetcher.pfHitInMSHR            0                       # number of prefetches hitting in a MSHR (Count)
system.cpu.dcache.prefetcher.pfHitInWB              0                       # number of prefetches hit in the Write Buffer (Count)
system.cpu.dcache.prefetcher.pfLate               432                       # number of late prefetches (hitting in cache, MSHR or WB) (Count)
system.cpu.dcache.prefetcher.pfIdentified        26591                       # number of prefetch candidates identified (Count)
system.cpu.dcache.prefetcher.pfBufferHit         1103                       # number of redundant prefetches already in prefetch queue (Count)
system.cpu.dcache.prefetcher.pfInCache              0                       # number of redundant prefetches already in cache/mshr dropped (Count)
system.cpu.dcache.prefetcher.pfRemovedDemand            1                       # number of prefetches dropped due to a demand for the same address (Count)
system.cpu.dcache.prefetcher.pfRemovedFull            0                       # number of prefetches dropped due to prefetch queue size (Count)
system.cpu.dcache.prefetcher.pfSpanPage          2701                       # number of prefetches that crossed the page (Count)
system.cpu.dcache.prefetcher.pfUsefulSpanPage            0                       # number of prefetches that is useful and crossed the page (Count)
system.cpu.dcache.prefetcher.power_state.pwrStateResidencyTicks::UNDEFINED  28406789000                       # Cumulative time (in ticks) in various power states (Tick)
system.cpu.dcache.tags.tagsInUse          1020.587825                       # Average ticks per tags in use ((Tick/Count))
system.cpu.dcache.tags.totalRefs             14616119                       # Total number of references to valid blocks. (Count)
system.cpu.dcache.tags.sampledRefs              65251                       # Sample count of references to valid blocks. (Count)
system.cpu.dcache.tags.avgRefs             223.998391                       # Average number of references to valid blocks. ((Count/Count))
system.cpu.dcache.tags.warmupTick              188000                       # The tick when the warmup percentage was hit. (Tick)
system.cpu.dcache.tags.occupancies::cpu.data   671.457145                       # Average occupied blocks per tick, per requestor ((Count/Tick))
system.cpu.dcache.tags.occupancies::cpu.dcache.prefetcher   349.130680                       # Average occupied blocks per tick, per requestor ((Count/Tick))
system.cpu.dcache.tags.avgOccs::cpu.data     0.655720                       # Average percentage of cache occupancy ((Ratio/Tick))
system.cpu.dcache.tags.avgOccs::cpu.dcache.prefetcher     0.340948                       # Average percentage of cache occupancy ((Ratio/Tick))
system.cpu.dcache.tags.avgOccs::total        0.996668                       # Average percentage of cache occupancy ((Ratio/Tick))
system.cpu.dcache.tags.occupanciesTaskId::1022          338                       # Occupied blocks per task id (Count)
system.cpu.dcache.tags.occupanciesTaskId::1024          686                       # Occupied blocks per task id (Count)
system.cpu.dcache.tags.ageTaskId_1022::0            4                       # Occupied blocks per task id, per block age (Count)
system.cpu.dcache.tags.ageTaskId_1022::1           39                       # Occupied blocks per task id, per block age (Count)
system.cpu.dcache.tags.ageTaskId_1022::2          274                       # Occupied blocks per task id, per block age (Count)
system.cpu.dcache.tags.ageTaskId_1022::3           20                       # Occupied blocks per task id, per block age (Count)
system.cpu.dcache.tags.ageTaskId_1022::4            1                       # Occupied blocks per task id, per block age (Count)
system.cpu.dcache.tags.ageTaskId_1024::0            8                       # Occupied blocks per task id, per block age (Count)
system.cpu.dcache.tags.ageTaskId_1024::1           69                       # Occupied blocks per task id, per block age (Count)
system.cpu.dcache.tags.ageTaskId_1024::2          413                       # Occupied blocks per task id, per block age (Count)
system.cpu.dcache.tags.ageTaskId_1024::3          155                       # Occupied blocks per task id, per block age (Count)
system.cpu.dcache.tags.ageTaskId_1024::4           41                       # Occupied blocks per task id, per block age (Count)
system.cpu.dcache.tags.ratioOccsTaskId::1022     0.330078                       # Ratio of occupied blocks and all blocks, per task id (Ratio)
system.cpu.dcache.tags.ratioOccsTaskId::1024     0.669922                       # Ratio of occupied blocks and all blocks, per task id (Ratio)
system.cpu.dcache.tags.tagAccesses           58474435                       # Number of tag accesses (Count)
system.cpu.dcache.tags.dataAccesses          58474435                       # Number of data accesses (Count)
system.cpu.dcache.tags.power_state.pwrStateResidencyTicks::UNDEFINED  28406789000                       # Cumulative time (in ticks) in various power states (Tick)
system.cpu.decode.idleCycles                  5206685                       # Number of cycles decode is idle (Cycle)
system.cpu.decode.blockedCycles               8794656                       # Number of cycles decode is blocked (Cycle)
system.cpu.decode.runCycles                  10430182                       # Number of cycles decode is running (Cycle)
system.cpu.decode.unblockCycles               3902928                       # Number of cycles decode is unblocking (Cycle)
system.cpu.decode.squashCycles                  58288                       # Number of cycles decode is squashing (Cycle)
system.cpu.decode.branchResolved              4412338                       # Number of times decode resolved a branch (Count)
system.cpu.decode.branchMispred                   335                       # Number of times decode detected a branch misprediction (Count)
system.cpu.decode.decodedInsts              100628025                       # Number of instructions handled by decode (Count)
system.cpu.decode.squashedInsts                  1529                       # Number of squashed instructions handled by decode (Count)
system.cpu.fetch.icacheStallCycles            7854896                       # Number of cycles fetch is stalled on an Icache miss (Cycle)
system.cpu.fetch.insts                       53453981                       # Number of instructions fetch has processed (Count)
system.cpu.fetch.branches                    12672994                       # Number of branches that fetch encountered (Count)
system.cpu.fetch.predictedBranches            5116942                       # Number of branches that fetch has predicted taken (Count)
system.cpu.fetch.cycles                      20478938                       # Number of cycles fetch has run and was not squashing or blocked (Cycle)
system.cpu.fetch.squashCycles                  117226                       # Number of cycles fetch has spent squashing (Cycle)
system.cpu.fetch.miscStallCycles                   38                       # Number of cycles fetch has spent waiting on interrupts, or bad addresses, or out of MSHRs (Cycle)
system.cpu.fetch.pendingTrapStallCycles           228                       # Number of stall cycles due to pending traps (Cycle)
system.cpu.fetch.icacheWaitRetryStallCycles           26                       # Number of stall cycles due to full MSHR (Cycle)
system.cpu.fetch.cacheLines                   7796723                       # Number of cache lines fetched (Count)
system.cpu.fetch.icacheSquashes                 16583                       # Number of outstanding Icache misses that were squashed (Count)
system.cpu.fetch.nisnDist::samples           28392739                       # Number of instructions fetched each cycle (Total) (Count)
system.cpu.fetch.nisnDist::mean              3.572477                       # Number of instructions fetched each cycle (Total) (Count)
system.cpu.fetch.nisnDist::stdev             3.543343                       # Number of instructions fetched each cycle (Total) (Count)
system.cpu.fetch.nisnDist::underflows               0      0.00%      0.00% # Number of instructions fetched each cycle (Total) (Count)
system.cpu.fetch.nisnDist::0                 11691785     41.18%     41.18% # Number of instructions fetched each cycle (Total) (Count)
system.cpu.fetch.nisnDist::1                   900121      3.17%     44.35% # Number of instructions fetched each cycle (Total) (Count)
system.cpu.fetch.nisnDist::2                  1459483      5.14%     49.49% # Number of instructions fetched each cycle (Total) (Count)
system.cpu.fetch.nisnDist::3                  1776820      6.26%     55.75% # Number of instructions fetched each cycle (Total) (Count)
system.cpu.fetch.nisnDist::4                   528481      1.86%     57.61% # Number of instructions fetched each cycle (Total) (Count)
system.cpu.fetch.nisnDist::5                  1257286      4.43%     62.04% # Number of instructions fetched each cycle (Total) (Count)
system.cpu.fetch.nisnDist::6                   799754      2.82%     64.85% # Number of instructions fetched each cycle (Total) (Count)
system.cpu.fetch.nisnDist::7                   748090      2.63%     67.49% # Number of instructions fetched each cycle (Total) (Count)
system.cpu.fetch.nisnDist::8                  9230919     32.51%    100.00% # Number of instructions fetched each cycle (Total) (Count)
system.cpu.fetch.nisnDist::overflows                0      0.00%    100.00% # Number of instructions fetched each cycle (Total) (Count)
system.cpu.fetch.nisnDist::min_value                0                       # Number of instructions fetched each cycle (Total) (Count)
system.cpu.fetch.nisnDist::max_value                8                       # Number of instructions fetched each cycle (Total) (Count)
system.cpu.fetch.nisnDist::total             28392739                       # Number of instructions fetched each cycle (Total) (Count)
system.cpu.fetch.branchRate                  0.446125                       # Number of branch fetches per cycle (Ratio)
system.cpu.fetch.rate                        1.881732                       # Number of inst fetches per cycle ((Count/Cycle))
system.cpu.icache.demandHits::cpu.inst        7795907                       # number of demand (read+write) hits (Count)
system.cpu.icache.demandHits::total           7795907                       # number of demand (read+write) hits (Count)
system.cpu.icache.overallHits::cpu.inst       7795907                       # number of overall hits (Count)
system.cpu.icache.overallHits::total          7795907                       # number of overall hits (Count)
system.cpu.icache.demandMisses::cpu.inst          816                       # number of demand (read+write) misses (Count)
system.cpu.icache.demandMisses::total             816                       # number of demand (read+write) misses (Count)
system.cpu.icache.overallMisses::cpu.inst          816                       # number of overall misses (Count)
system.cpu.icache.overallMisses::total            816                       # number of overall misses (Count)
system.cpu.icache.demandMissLatency::cpu.inst     60958000                       # number of demand (read+write) miss ticks (Tick)
system.cpu.icache.demandMissLatency::total     60958000                       # number of demand (read+write) miss ticks (Tick)
system.cpu.icache.overallMissLatency::cpu.inst     60958000                       # number of overall miss ticks (Tick)
system.cpu.icache.overallMissLatency::total     60958000                       # number of overall miss ticks (Tick)
system.cpu.icache.demandAccesses::cpu.inst      7796723                       # number of demand (read+write) accesses (Count)
system.cpu.icache.demandAccesses::total       7796723                       # number of demand (read+write) accesses (Count)
system.cpu.icache.overallAccesses::cpu.inst      7796723                       # number of overall (read+write) accesses (Count)
system.cpu.icache.overallAccesses::total      7796723                       # number of overall (read+write) accesses (Count)
system.cpu.icache.demandMissRate::cpu.inst     0.000105                       # miss rate for demand accesses (Ratio)
system.cpu.icache.demandMissRate::total      0.000105                       # miss rate for demand accesses (Ratio)
system.cpu.icache.overallMissRate::cpu.inst     0.000105                       # miss rate for overall accesses (Ratio)
system.cpu.icache.overallMissRate::total     0.000105                       # miss rate for overall accesses (Ratio)
system.cpu.icache.demandAvgMissLatency::cpu.inst 74703.431373                       # average overall miss latency in ticks ((Tick/Count))
system.cpu.icache.demandAvgMissLatency::total 74703.431373                       # average overall miss latency in ticks ((Tick/Count))
system.cpu.icache.overallAvgMissLatency::cpu.inst 74703.431373                       # average overall miss latency ((Tick/Count))
system.cpu.icache.overallAvgMissLatency::total 74703.431373                       # average overall miss latency ((Tick/Count))
system.cpu.icache.blockedCycles::no_mshrs           89                       # number of cycles access was blocked (Cycle)
system.cpu.icache.blockedCycles::no_targets            0                       # number of cycles access was blocked (Cycle)
system.cpu.icache.blockedCauses::no_mshrs            3                       # number of times access was blocked (Count)
system.cpu.icache.blockedCauses::no_targets            0                       # number of times access was blocked (Count)
system.cpu.icache.avgBlocked::no_mshrs      29.666667                       # average number of cycles each access was blocked ((Cycle/Count))
system.cpu.icache.avgBlocked::no_targets          nan                       # average number of cycles each access was blocked ((Cycle/Count))
system.cpu.icache.demandMshrHits::cpu.inst          205                       # number of demand (read+write) MSHR hits (Count)
system.cpu.icache.demandMshrHits::total           205                       # number of demand (read+write) MSHR hits (Count)
system.cpu.icache.overallMshrHits::cpu.inst          205                       # number of overall MSHR hits (Count)
system.cpu.icache.overallMshrHits::total          205                       # number of overall MSHR hits (Count)
system.cpu.icache.demandMshrMisses::cpu.inst          611                       # number of demand (read+write) MSHR misses (Count)
system.cpu.icache.demandMshrMisses::total          611                       # number of demand (read+write) MSHR misses (Count)
system.cpu.icache.overallMshrMisses::cpu.inst          611                       # number of overall MSHR misses (Count)
system.cpu.icache.overallMshrMisses::total          611                       # number of overall MSHR misses (Count)
system.cpu.icache.demandMshrMissLatency::cpu.inst     49683000                       # number of demand (read+write) MSHR miss ticks (Tick)
system.cpu.icache.demandMshrMissLatency::total     49683000                       # number of demand (read+write) MSHR miss ticks (Tick)
system.cpu.icache.overallMshrMissLatency::cpu.inst     49683000                       # number of overall MSHR miss ticks (Tick)
system.cpu.icache.overallMshrMissLatency::total     49683000                       # number of overall MSHR miss ticks (Tick)
system.cpu.icache.demandMshrMissRate::cpu.inst     0.000078                       # mshr miss ratio for demand accesses (Ratio)
system.cpu.icache.demandMshrMissRate::total     0.000078                       # mshr miss ratio for demand accesses (Ratio)
system.cpu.icache.overallMshrMissRate::cpu.inst     0.000078                       # mshr miss ratio for overall accesses (Ratio)
system.cpu.icache.overallMshrMissRate::total     0.000078                       # mshr miss ratio for overall accesses (Ratio)
system.cpu.icache.demandAvgMshrMissLatency::cpu.inst 81314.238953                       # average overall mshr miss latency ((Tick/Count))
system.cpu.icache.demandAvgMshrMissLatency::total 81314.238953                       # average overall mshr miss latency ((Tick/Count))
system.cpu.icache.overallAvgMshrMissLatency::cpu.inst 81314.238953                       # average overall mshr miss latency ((Tick/Count))
system.cpu.icache.overallAvgMshrMissLatency::total 81314.238953                       # average overall mshr miss latency ((Tick/Count))
system.cpu.icache.replacements                     18                       # number of replacements (Count)
system.cpu.icache.ReadReq.hits::cpu.inst      7795907                       # number of ReadReq hits (Count)
system.cpu.icache.ReadReq.hits::total         7795907                       # number of ReadReq hits (Count)
system.cpu.icache.ReadReq.misses::cpu.inst          816                       # number of ReadReq misses (Count)
system.cpu.icache.ReadReq.misses::total           816                       # number of ReadReq misses (Count)
system.cpu.icache.ReadReq.missLatency::cpu.inst     60958000                       # number of ReadReq miss ticks (Tick)
system.cpu.icache.ReadReq.missLatency::total     60958000                       # number of ReadReq miss ticks (Tick)
system.cpu.icache.ReadReq.accesses::cpu.inst      7796723                       # number of ReadReq accesses(hits+misses) (Count)
system.cpu.icache.ReadReq.accesses::total      7796723                       # number of ReadReq accesses(hits+misses) (Count)
system.cpu.icache.ReadReq.missRate::cpu.inst     0.000105                       # miss rate for ReadReq accesses (Ratio)
system.cpu.icache.ReadReq.missRate::total     0.000105                       # miss rate for ReadReq accesses (Ratio)
system.cpu.icache.ReadReq.avgMissLatency::cpu.inst 74703.431373                       # average ReadReq miss latency ((Tick/Count))
system.cpu.icache.ReadReq.avgMissLatency::total 74703.431373                       # average ReadReq miss latency ((Tick/Count))
system.cpu.icache.ReadReq.mshrHits::cpu.inst          205                       # number of ReadReq MSHR hits (Count)
system.cpu.icache.ReadReq.mshrHits::total          205                       # number of ReadReq MSHR hits (Count)
system.cpu.icache.ReadReq.mshrMisses::cpu.inst          611                       # number of ReadReq MSHR misses (Count)
system.cpu.icache.ReadReq.mshrMisses::total          611                       # number of ReadReq MSHR misses (Count)
system.cpu.icache.ReadReq.mshrMissLatency::cpu.inst     49683000                       # number of ReadReq MSHR miss ticks (Tick)
system.cpu.icache.ReadReq.mshrMissLatency::total     49683000                       # number of ReadReq MSHR miss ticks (Tick)
system.cpu.icache.ReadReq.mshrMissRate::cpu.inst     0.000078                       # mshr miss rate for ReadReq accesses (Ratio)
system.cpu.icache.ReadReq.mshrMissRate::total     0.000078                       # mshr miss rate for ReadReq accesses (Ratio)
system.cpu.icache.ReadReq.avgMshrMissLatency::cpu.inst 81314.238953                       # average ReadReq mshr miss latency ((Tick/Count))
system.cpu.icache.ReadReq.avgMshrMissLatency::total 81314.238953                       # average ReadReq mshr miss latency ((Tick/Count))
system.cpu.icache.power_state.pwrStateResidencyTicks::UNDEFINED  28406789000                       # Cumulative time (in ticks) in various power states (Tick)
system.cpu.icache.prefetcher.demandMshrMisses          611                       # demands not covered by prefetchs (Count)
system.cpu.icache.prefetcher.pfIssued               0                       # number of hwpf issued (Count)
system.cpu.icache.prefetcher.pfUseful               0                       # number of useful prefetch (Count)
system.cpu.icache.prefetcher.pfUsefulButMiss            0                       # number of hit on prefetch but cache block is not in an usable state (Count)
system.cpu.icache.prefetcher.accuracy             nan                       # accuracy of the prefetcher (Count)
system.cpu.icache.prefetcher.coverage               0                       # coverage brought by this prefetcher (Count)
system.cpu.icache.prefetcher.pfHitInCache            0                       # number of prefetches hitting in cache (Count)
system.cpu.icache.prefetcher.pfHitInMSHR            0                       # number of prefetches hitting in a MSHR (Count)
system.cpu.icache.prefetcher.pfHitInWB              0                       # number of prefetches hit in the Write Buffer (Count)
system.cpu.icache.prefetcher.pfLate                 0                       # number of late prefetches (hitting in cache, MSHR or WB) (Count)
system.cpu.icache.prefetcher.pfIdentified            0                       # number of prefetch candidates identified (Count)
system.cpu.icache.prefetcher.pfBufferHit            0                       # number of redundant prefetches already in prefetch queue (Count)
system.cpu.icache.prefetcher.pfInCache              0                       # number of redundant prefetches already in cache/mshr dropped (Count)
system.cpu.icache.prefetcher.pfRemovedDemand            0                       # number of prefetches dropped due to a demand for the same address (Count)
system.cpu.icache.prefetcher.pfRemovedFull            0                       # number of prefetches dropped due to prefetch queue size (Count)
system.cpu.icache.prefetcher.pfSpanPage             0                       # number of prefetches that crossed the page (Count)
system.cpu.icache.prefetcher.pfUsefulSpanPage            0                       # number of prefetches that is useful and crossed the page (Count)
system.cpu.icache.prefetcher.power_state.pwrStateResidencyTicks::UNDEFINED  28406789000                       # Cumulative time (in ticks) in various power states (Tick)
system.cpu.icache.tags.tagsInUse           585.435039                       # Average ticks per tags in use ((Tick/Count))
system.cpu.icache.tags.totalRefs              7796518                       # Total number of references to valid blocks. (Count)
system.cpu.icache.tags.sampledRefs                611                       # Sample count of references to valid blocks. (Count)
system.cpu.icache.tags.avgRefs           12760.258592                       # Average number of references to valid blocks. ((Count/Count))
system.cpu.icache.tags.warmupTick               88000                       # The tick when the warmup percentage was hit. (Tick)
system.cpu.icache.tags.occupancies::cpu.inst   585.435039                       # Average occupied blocks per tick, per requestor ((Count/Tick))
system.cpu.icache.tags.avgOccs::cpu.inst     0.571714                       # Average percentage of cache occupancy ((Ratio/Tick))
system.cpu.icache.tags.avgOccs::total        0.571714                       # Average percentage of cache occupancy ((Ratio/Tick))
system.cpu.icache.tags.occupanciesTaskId::1024          593                       # Occupied blocks per task id (Count)
system.cpu.icache.tags.ageTaskId_1024::4          593                       # Occupied blocks per task id, per block age (Count)
system.cpu.icache.tags.ratioOccsTaskId::1024     0.579102                       # Ratio of occupied blocks and all blocks, per task id (Ratio)
system.cpu.icache.tags.tagAccesses           31187503                       # Number of tag accesses (Count)
system.cpu.icache.tags.dataAccesses          31187503                       # Number of data accesses (Count)
system.cpu.icache.tags.power_state.pwrStateResidencyTicks::UNDEFINED  28406789000                       # Cumulative time (in ticks) in various power states (Tick)
system.cpu.iew.idleCycles                           0                       # Number of cycles IEW is idle (Cycle)
system.cpu.iew.squashCycles                     58288                       # Number of cycles IEW is squashing (Cycle)
system.cpu.iew.blockCycles                    1154480                       # Number of cycles IEW is blocking (Cycle)
system.cpu.iew.unblockCycles                    21258                       # Number of cycles IEW is unblocking (Cycle)
system.cpu.iew.dispatchedInsts               99759210                       # Number of instructions dispatched to IQ (Count)
system.cpu.iew.dispSquashedInsts                   19                       # Number of squashed instructions skipped by dispatch (Count)
[...]
system.mem_ctrl.dram.numWrites::writebacks        57235                       # Number of write requests responded to by this memory (Count)
system.mem_ctrl.dram.numWrites::total           57235                       # Number of write requests responded to by this memory (Count)
system.mem_ctrl.dram.bwRead::cpu.inst         1351790                       # Total read bandwidth from this memory ((Byte/Second))
system.mem_ctrl.dram.bwRead::cpu.data        83461739                       # Total read bandwidth from this memory ((Byte/Second))
system.mem_ctrl.dram.bwRead::cpu.dcache.prefetcher     55898750                       # Total read bandwidth from this memory ((Byte/Second))
system.mem_ctrl.dram.bwRead::l2cache.prefetcher      1317995                       # Total read bandwidth from this memory ((Byte/Second))
system.mem_ctrl.dram.bwRead::total          142030273                       # Total read bandwidth from this memory ((Byte/Second))
system.mem_ctrl.dram.bwInstRead::cpu.inst      1351790                       # Instruction read bandwidth from this memory ((Byte/Second))
system.mem_ctrl.dram.bwInstRead::total        1351790                       # Instruction read bandwidth from this memory ((Byte/Second))
system.mem_ctrl.dram.bwWrite::writebacks    128949456                       # Write bandwidth from this memory ((Byte/Second))
system.mem_ctrl.dram.bwWrite::total         128949456                       # Write bandwidth from this memory ((Byte/Second))
system.mem_ctrl.dram.bwTotal::writebacks    128949456                       # Total bandwidth to/from this memory ((Byte/Second))
system.mem_ctrl.dram.bwTotal::cpu.inst        1351790                       # Total bandwidth to/from this memory ((Byte/Second))
system.mem_ctrl.dram.bwTotal::cpu.data       83461739                       # Total bandwidth to/from this memory ((Byte/Second))
system.mem_ctrl.dram.bwTotal::cpu.dcache.prefetcher     55898750                       # Total bandwidth to/from this memory ((Byte/Second))
system.mem_ctrl.dram.bwTotal::l2cache.prefetcher      1317995                       # Total bandwidth to/from this memory ((Byte/Second))
system.mem_ctrl.dram.bwTotal::total         270979730                       # Total bandwidth to/from this memory ((Byte/Second))
system.mem_ctrl.dram.readBursts                 63038                       # Number of DRAM read bursts (Count)
system.mem_ctrl.dram.writeBursts                57214                       # Number of DRAM write bursts (Count)
system.mem_ctrl.dram.perBankRdBursts::0          3870                       # Per bank write bursts (Count)
system.mem_ctrl.dram.perBankRdBursts::1          3920                       # Per bank write bursts (Count)
system.mem_ctrl.dram.perBankRdBursts::2          3931                       # Per bank write bursts (Count)
system.mem_ctrl.dram.perBankRdBursts::3          3908                       # Per bank write bursts (Count)
system.mem_ctrl.dram.perBankRdBursts::4          3870                       # Per bank write bursts (Count)
system.mem_ctrl.dram.perBankRdBursts::5          3905                       # Per bank write bursts (Count)
system.mem_ctrl.dram.perBankRdBursts::6          3962                       # Per bank write bursts (Count)
system.mem_ctrl.dram.perBankRdBursts::7          3768                       # Per bank write bursts (Count)
system.mem_ctrl.dram.perBankRdBursts::8          3857                       # Per bank write bursts (Count)
system.mem_ctrl.dram.perBankRdBursts::9          3725                       # Per bank write bursts (Count)
system.mem_ctrl.dram.perBankRdBursts::10         4880                       # Per bank write bursts (Count)
system.mem_ctrl.dram.perBankRdBursts::11         3829                       # Per bank write bursts (Count)
system.mem_ctrl.dram.perBankRdBursts::12         3920                       # Per bank write bursts (Count)
system.mem_ctrl.dram.perBankRdBursts::13         3951                       # Per bank write bursts (Count)
system.mem_ctrl.dram.perBankRdBursts::14         3888                       # Per bank write bursts (Count)
system.mem_ctrl.dram.perBankRdBursts::15         3854                       # Per bank write bursts (Count)
system.mem_ctrl.dram.perBankWrBursts::0          3530                       # Per bank write bursts (Count)
system.mem_ctrl.dram.perBankWrBursts::1          3602                       # Per bank write bursts (Count)
system.mem_ctrl.dram.perBankWrBursts::2          3641                       # Per bank write bursts (Count)
system.mem_ctrl.dram.perBankWrBursts::3          3595                       # Per bank write bursts (Count)
system.mem_ctrl.dram.perBankWrBursts::4          3568                       # Per bank write bursts (Count)
system.mem_ctrl.dram.perBankWrBursts::5          3554                       # Per bank write bursts (Count)
system.mem_ctrl.dram.perBankWrBursts::6          3621                       # Per bank write bursts (Count)
system.mem_ctrl.dram.perBankWrBursts::7          3513                       # Per bank write bursts (Count)
system.mem_ctrl.dram.perBankWrBursts::8          3589                       # Per bank write bursts (Count)
system.mem_ctrl.dram.perBankWrBursts::9          3493                       # Per bank write bursts (Count)
system.mem_ctrl.dram.perBankWrBursts::10         3552                       # Per bank write bursts (Count)
system.mem_ctrl.dram.perBankWrBursts::11         3519                       # Per bank write bursts (Count)
system.mem_ctrl.dram.perBankWrBursts::12         3618                       # Per bank write bursts (Count)
system.mem_ctrl.dram.perBankWrBursts::13         3621                       # Per bank write bursts (Count)
system.mem_ctrl.dram.perBankWrBursts::14         3649                       # Per bank write bursts (Count)
system.mem_ctrl.dram.perBankWrBursts::15         3549                       # Per bank write bursts (Count)
system.mem_ctrl.dram.totQLat                884671952                       # Total ticks spent queuing (Tick)
system.mem_ctrl.dram.totBusLat              315190000                       # Total ticks spent in databus transfers (Tick)
system.mem_ctrl.dram.totMemAccLat          2066634452                       # Total ticks spent from burst creation until serviced by the DRAM (Tick)
system.mem_ctrl.dram.avgQLat                 14033.95                       # Average queueing delay per DRAM burst ((Tick/Count))
system.mem_ctrl.dram.avgBusLat                5000.00                       # Average bus latency per DRAM burst ((Tick/Count))
system.mem_ctrl.dram.avgMemAccLat            32783.95                       # Average memory access latency per DRAM burst ((Tick/Count))
system.mem_ctrl.dram.readRowHits                49302                       # Number of row buffer hits during reads (Count)
system.mem_ctrl.dram.writeRowHits               44427                       # Number of row buffer hits during writes (Count)
system.mem_ctrl.dram.readRowHitRate             78.21                       # Row buffer hit rate for reads (Ratio)
system.mem_ctrl.dram.writeRowHitRate            77.65                       # Row buffer hit rate for writes (Ratio)
system.mem_ctrl.dram.bytesPerActivate::samples        26522                       # Bytes accessed per row activation (Byte)
system.mem_ctrl.dram.bytesPerActivate::mean   290.176608                       # Bytes accessed per row activation (Byte)
system.mem_ctrl.dram.bytesPerActivate::gmean   172.490274                       # Bytes accessed per row activation (Byte)
system.mem_ctrl.dram.bytesPerActivate::stdev   296.880235                       # Bytes accessed per row activation (Byte)
system.mem_ctrl.dram.bytesPerActivate::0-127        11682     44.05%     44.05% # Bytes accessed per row activation (Byte)
system.mem_ctrl.dram.bytesPerActivate::128-255         4146     15.63%     59.68% # Bytes accessed per row activation (Byte)
system.mem_ctrl.dram.bytesPerActivate::256-383         2070      7.80%     67.48% # Bytes accessed per row activation (Byte)
system.mem_ctrl.dram.bytesPerActivate::384-511         2574      9.71%     77.19% # Bytes accessed per row activation (Byte)
system.mem_ctrl.dram.bytesPerActivate::512-639         1985      7.48%     84.67% # Bytes accessed per row activation (Byte)
system.mem_ctrl.dram.bytesPerActivate::640-767          967      3.65%     88.32% # Bytes accessed per row activation (Byte)
system.mem_ctrl.dram.bytesPerActivate::768-895          801      3.02%     91.34% # Bytes accessed per row activation (Byte)
system.mem_ctrl.dram.bytesPerActivate::896-1023          715      2.70%     94.04% # Bytes accessed per row activation (Byte)
system.mem_ctrl.dram.bytesPerActivate::1024-1151         1582      5.96%    100.00% # Bytes accessed per row activation (Byte)
system.mem_ctrl.dram.bytesPerActivate::total        26522                       # Bytes accessed per row activation (Byte)
system.mem_ctrl.dram.bytesRead                4034432                       # Total bytes read (Byte)
system.mem_ctrl.dram.bytesWritten             3661696                       # Total bytes written (Byte)
system.mem_ctrl.dram.avgRdBW               142.023514                       # Average DRAM read bandwidth in MiBytes/s ((Byte/Second))
system.mem_ctrl.dram.avgWrBW               128.902144                       # Average DRAM write bandwidth in MiBytes/s ((Byte/Second))
system.mem_ctrl.dram.peakBW                  12800.00                       # Theoretical peak bandwidth in MiByte/s ((Byte/Second))
system.mem_ctrl.dram.busUtil                     2.12                       # Data bus utilization in percentage (Ratio)
system.mem_ctrl.dram.busUtilRead                 1.11                       # Data bus utilization in percentage for reads (Ratio)
system.mem_ctrl.dram.busUtilWrite                1.01                       # Data bus utilization in percentage for writes (Ratio)
system.mem_ctrl.dram.pageHitRate                77.94                       # Row buffer hit rate, read and write combined (Ratio)
system.mem_ctrl.dram.power_state.pwrStateResidencyTicks::UNDEFINED  28406789000                       # Cumulative time (in ticks) in various power states (Tick)
system.mem_ctrl.dram.rank0.actEnergy         92113140                       # Energy for activate commands per rank (pJ) (Joule)
system.mem_ctrl.dram.rank0.preEnergy         48955500                       # Energy for precharge commands per rank (pJ) (Joule)
system.mem_ctrl.dram.rank0.readEnergy       222296760                       # Energy for read commands per rank (pJ) (Joule)
system.mem_ctrl.dram.rank0.writeEnergy      149417280                       # Energy for write commands per rank (pJ) (Joule)
system.mem_ctrl.dram.rank0.refreshEnergy 2242206720.000000                       # Energy for refresh commands per rank (pJ) (Joule)
system.mem_ctrl.dram.rank0.actBackEnergy   8244836820                       # Energy for active background per rank (pJ) (Joule)
system.mem_ctrl.dram.rank0.preBackEnergy   3965186880                       # Energy for precharge background per rank (pJ) (Joule)
system.mem_ctrl.dram.rank0.actPowerDownEnergy            0                       # Energy for active power-down per rank (pJ) (Joule)
system.mem_ctrl.dram.rank0.prePowerDownEnergy            0                       # Energy for precharge power-down per rank (pJ) (Joule)
system.mem_ctrl.dram.rank0.selfRefreshEnergy            0                       # Energy for self refresh per rank (pJ) (Joule)
system.mem_ctrl.dram.rank0.totalEnergy    14965013100                       # Total energy per rank (pJ) (Joule)
system.mem_ctrl.dram.rank0.averagePower    526.811147                       # Core power per rank (mW) (Watt)
system.mem_ctrl.dram.rank0.totalIdleTime            0                       # Total Idle time Per DRAM Rank (Tick)
system.mem_ctrl.dram.rank0.pwrStateTime::IDLE  10225710508                       # Time in different power states (Tick)
system.mem_ctrl.dram.rank0.pwrStateTime::REF    948480000                       # Time in different power states (Tick)
system.mem_ctrl.dram.rank0.pwrStateTime::SREF            0                       # Time in different power states (Tick)
system.mem_ctrl.dram.rank0.pwrStateTime::PRE_PDN            0                       # Time in different power states (Tick)
system.mem_ctrl.dram.rank0.pwrStateTime::ACT  17232598492                       # Time in different power states (Tick)
system.mem_ctrl.dram.rank0.pwrStateTime::ACT_PDN            0                       # Time in different power states (Tick)
system.mem_ctrl.dram.rank1.actEnergy         97261080                       # Energy for activate commands per rank (pJ) (Joule)
system.mem_ctrl.dram.rank1.preEnergy         51695490                       # Energy for precharge commands per rank (pJ) (Joule)
system.mem_ctrl.dram.rank1.readEnergy       227794560                       # Energy for read commands per rank (pJ) (Joule)
system.mem_ctrl.dram.rank1.writeEnergy      149239800                       # Energy for write commands per rank (pJ) (Joule)
system.mem_ctrl.dram.rank1.refreshEnergy 2242206720.000000                       # Energy for refresh commands per rank (pJ) (Joule)
system.mem_ctrl.dram.rank1.actBackEnergy   8375984700                       # Energy for active background per rank (pJ) (Joule)
system.mem_ctrl.dram.rank1.preBackEnergy   3854746560                       # Energy for precharge background per rank (pJ) (Joule)
system.mem_ctrl.dram.rank1.actPowerDownEnergy            0                       # Energy for active power-down per rank (pJ) (Joule)
system.mem_ctrl.dram.rank1.prePowerDownEnergy            0                       # Energy for precharge power-down per rank (pJ) (Joule)
system.mem_ctrl.dram.rank1.selfRefreshEnergy            0                       # Energy for self refresh per rank (pJ) (Joule)
system.mem_ctrl.dram.rank1.totalEnergy    14998928910                       # Total energy per rank (pJ) (Joule)
system.mem_ctrl.dram.rank1.averagePower    528.005080                       # Core power per rank (mW) (Watt)
system.mem_ctrl.dram.rank1.totalIdleTime            0                       # Total Idle time Per DRAM Rank (Tick)
system.mem_ctrl.dram.rank1.pwrStateTime::IDLE   9936649256                       # Time in different power states (Tick)
system.mem_ctrl.dram.rank1.pwrStateTime::REF    948480000                       # Time in different power states (Tick)
system.mem_ctrl.dram.rank1.pwrStateTime::SREF            0                       # Time in different power states (Tick)
system.mem_ctrl.dram.rank1.pwrStateTime::PRE_PDN            0                       # Time in different power states (Tick)
system.mem_ctrl.dram.rank1.pwrStateTime::ACT  17521659744                       # Time in different power states (Tick)
system.mem_ctrl.dram.rank1.pwrStateTime::ACT_PDN            0                       # Time in different power states (Tick)
system.mem_ctrl.power_state.pwrStateResidencyTicks::UNDEFINED  28406789000                       # Cumulative time (in ticks) in various power states (Tick)
system.membus.transDist::ReadResp               37239                       # Transaction distribution (Count)
system.membus.transDist::WritebackDirty         57235                       # Transaction distribution (Count)
system.membus.transDist::CleanEvict              1054                       # Transaction distribution (Count)
system.membus.transDist::ReadExReq              25802                       # Transaction distribution (Count)
system.membus.transDist::ReadExResp             25802                       # Transaction distribution (Count)
system.membus.transDist::ReadSharedReq          37239                       # Transaction distribution (Count)
system.membus.pktCount_system.l2cache.mem_side_port::system.mem_ctrl.port       184371                       # Packet count per connected requestor and responder (Count)
system.membus.pktCount_system.l2cache.mem_side_port::total       184371                       # Packet count per connected requestor and responder (Count)
system.membus.pktCount::total                  184371                       # Packet count per connected requestor and responder (Count)
system.membus.pktSize_system.l2cache.mem_side_port::system.mem_ctrl.port      7697664                       # Cumulative packet size per connected requestor and responder (Byte)
system.membus.pktSize_system.l2cache.mem_side_port::total      7697664                       # Cumulative packet size per connected requestor and responder (Byte)
system.membus.pktSize::total                  7697664                       # Cumulative packet size per connected requestor and responder (Byte)
system.membus.snoops                                0                       # Total snoops (Count)
system.membus.snoopTraffic                          0                       # Total snoop traffic (Byte)
system.membus.snoopFanout::samples              63041                       # Request fanout histogram (Count)
system.membus.snoopFanout::mean                     0                       # Request fanout histogram (Count)
system.membus.snoopFanout::stdev                    0                       # Request fanout histogram (Count)
system.membus.snoopFanout::underflows               0      0.00%      0.00% # Request fanout histogram (Count)
system.membus.snoopFanout::0                    63041    100.00%    100.00% # Request fanout histogram (Count)
system.membus.snoopFanout::1                        0      0.00%    100.00% # Request fanout histogram (Count)
system.membus.snoopFanout::overflows                0      0.00%    100.00% # Request fanout histogram (Count)
system.membus.snoopFanout::min_value                0                       # Request fanout histogram (Count)
system.membus.snoopFanout::max_value                0                       # Request fanout histogram (Count)
system.membus.snoopFanout::total                63041                       # Request fanout histogram (Count)
system.membus.power_state.pwrStateResidencyTicks::UNDEFINED  28406789000                       # Cumulative time (in ticks) in various power states (Tick)
system.membus.reqLayer2.occupancy           350297014                       # Layer occupancy (ticks) (Tick)
system.membus.reqLayer2.utilization               0.0                       # Layer utilization (Ratio)
system.membus.respLayer0.occupancy          332094098                       # Layer occupancy (ticks) (Tick)
system.membus.respLayer0.utilization              0.0                       # Layer utilization (Ratio)
system.membus.snoop_filter.totRequests         121330                       # Total number of requests made to the snoop filter. (Count)
system.membus.snoop_filter.hitSingleRequests        58292                       # Number of requests hitting in the snoop filter with a single holder of the requested data. (Count)
system.membus.snoop_filter.hitMultiRequests            0                       # Number of requests hitting in the snoop filter with multiple (>1) holders of the requested data. (Count)
system.membus.snoop_filter.totSnoops                0                       # Total number of snoops made to the snoop filter. (Count)
system.membus.snoop_filter.hitSingleSnoops            0                       # Number of snoops hitting in the snoop filter with a single holder of the requested data. (Count)
system.membus.snoop_filter.hitMultiSnoops            0                       # Number of snoops hitting in the snoop filter with multiple (>1) holders of the requested data. (Count)
system.workload.inst.arm                            0                       # number of arm instructions executed (Count)
system.workload.inst.quiesce                        0                       # number of quiesce instructions executed (Count)

---------- End Simulation Statistics   ----------
