
---------- Begin Simulation Statistics ----------
simSeconds                                   0.042341                       # Number of seconds simulated (Second)
simTicks                                  42341163000                       # Number of ticks simulated (Tick)
finalTick                                 42341163000                       # Number of ticks from beginning of simulation (restored from checkpoints and never reset) (Tick)
simFreq                                  1000000000000                       # The number of ticks per simulated second ((Tick/Second))
hostSeconds                                    188.80                       # Real time elapsed on the host (Second)
hostTickRate                                224268976                       # The number of ticks simulated per host second (ticks/s) ((Tick/Second))
hostMemory                                    8520496                       # Number of bytes of host memory used (Byte)
simInsts                                      5000000                       # Number of instructions simulated (Count)
simOps                                        6698741                       # Number of ops (including micro ops) simulated (Count)
hostInstRate                                    26484                       # Simulator instruction rate (inst/s) ((Count/Second))
hostOpRate                                      35481                       # Simulator op (including micro ops) rate (op/s) ((Count/Second))
system.clk_domain.clock                          1000                       # Clock period in ticks (Tick)
system.clk_domain.voltage_domain.voltage            1                       # Voltage in Volts (Volt)
system.cpu.numCycles                         42341177                       # Number of cpu cycles simulated (Cycle)
system.cpu.numWorkItemsStarted                      0                       # Number of work items this cpu started (Count)
system.cpu.numWorkItemsCompleted                    0                       # Number of work items this cpu completed (Count)
system.cpu.instsAdded                        48288835                       # Number of instructions added to the IQ (excludes non-spec) (Count)
system.cpu.nonSpecInstsAdded                  1488085                       # Number of non-speculative instructions added to the IQ (Count)
system.cpu.instsIssued                       48391473                       # Number of instructions issued (Count)
system.cpu.squashedInstsIssued                   1940                       # Number of squashed instructions issued (Count)
system.cpu.squashedInstsExamined             43078135                       # Number of squashed instructions iterated over during squash; mainly for profiling (Count)
system.cpu.squashedOperandsExamined           1770216                       # Number of squashed operands that are examined and possibly removed from graph (Count)
system.cpu.squashedNonSpecRemoved             1400523                       # Number of squashed non-spec instructions that were removed (Count)
system.cpu.numIssuedDist::samples            42328948                       # Number of insts issued each cycle (Count)
system.cpu.numIssuedDist::mean               1.143224                       # Number of insts issued each cycle (Count)
system.cpu.numIssuedDist::stdev              1.567601                       # Number of insts issued each cycle (Count)
system.cpu.numIssuedDist::underflows                0      0.00%      0.00% # Number of insts issued each cycle (Count)
system.cpu.numIssuedDist::0                  22068637     52.14%     52.14% # Number of insts issued each cycle (Count)
system.cpu.numIssuedDist::1                   6016561     14.21%     66.35% # Number of insts issued each cycle (Count)
system.cpu.numIssuedDist::2                   8299473     19.61%     85.96% # Number of insts issued each cycle (Count)
system.cpu.numIssuedDist::3                   1982863      4.68%     90.64% # Number of insts issued each cycle (Count)
system.cpu.numIssuedDist::4                   1291887      3.05%     93.69% # Number of insts issued each cycle (Count)
system.cpu.numIssuedDist::5                   1576147      3.72%     97.42% # Number of insts issued each cycle (Count)
system.cpu.numIssuedDist::6                    874567      2.07%     99.48% # Number of insts issued each cycle (Count)
system.cpu.numIssuedDist::7                    218812      0.52%    100.00% # Number of insts issued each cycle (Count)
system.cpu.numIssuedDist::8                         1      0.00%    100.00% # Number of insts issued each cycle (Count)
system.cpu.numIssuedDist::overflows                 0      0.00%    100.00% # Number of insts issued each cycle (Count)
system.cpu.numIssuedDist::min_value                 0                       # Number of insts issued each cycle (Count)
system.cpu.numIssuedDist::max_value                 8                       # Number of insts issued each cycle (Count)
system.cpu.numIssuedDist::total              42328948                       # Number of insts issued each cycle (Count)
system.cpu.statFuBusy::No_OpClass                   0      0.00%      0.00% # attempts to use FU when none available (Count)
system.cpu.statFuBusy::IntAlu                 1748869     10.58%     10.58% # attempts to use FU when none available (Count)
system.cpu.statFuBusy::IntMult                      0      0.00%     10.58% # attempts to use FU when none available (Count)
system.cpu.statFuBusy::IntDiv                       0      0.00%     10.58% # attempts to use FU when none available (Count)
system.cpu.statFuBusy::FloatAdd                     0      0.00%     10.58% # attempts to use FU when none available (Count)
system.cpu.statFuBusy::FloatCmp                     0      0.00%     10.58% # attempts to use FU when none available (Count)
system.cpu.statFuBusy::FloatCvt                     0      0.00%     10.58% # attempts to use FU when none available (Count)
system.cpu.statFuBusy::FloatMult                    0      0.00%     10.58% # attempts to use FU when none available (Count)
system.cpu.statFuBusy::FloatMultAcc                 0      0.00%     10.58% # attempts to use FU when none available (Count)
system.cpu.statFuBusy::FloatDiv                     0      0.00%     10.58% # attempts to use FU when none available (Count)
system.cpu.statFuBusy::FloatMisc                    0      0.00%     10.58% # attempts to use FU when none available (Count)
system.cpu.statFuBusy::FloatSqrt                    0      0.00%     10.58% # attempts to use FU when none available (Count)
system.cpu.statFuBusy::SimdAdd                      0      0.00%     10.58% # attempts to use FU when none available (Count)
system.cpu.statFuBusy::SimdAddAcc                   0      0.00%     10.58% # attempts to use FU when none available (Count)
system.cpu.statFuBusy::SimdAlu                     10      0.00%     10.58% # attempts to use FU when none available (Count)
system.cpu.statFuBusy::SimdCmp                      0      0.00%     10.58% # attempts to use FU when none available (Count)
system.cpu.statFuBusy::SimdCvt                      0      0.00%     10.58% # attempts to use FU when none available (Count)
system.cpu.statFuBusy::SimdMisc                     0      0.00%     10.58% # attempts to use FU when none available (Count)
system.cpu.statFuBusy::SimdMult                     0      0.00%     10.58% # attempts to use FU when none available (Count)
system.cpu.statFuBusy::SimdMultAcc                  0      0.00%     10.58% # attempts to use FU when none available (Count)
system.cpu.statFuBusy::SimdShift                    0      0.00%     10.58% # attempts to use FU when none available (Count)
system.cpu.statFuBusy::SimdShiftAcc                 0      0.00%     10.58% # attempts to use FU when none available (Count)
system.cpu.statFuBusy::SimdDiv                      0      0.00%     10.58% # attempts to use FU when none available (Count)
system.cpu.statFuBusy::SimdSqrt                     0      0.00%     10.58% # attempts to use FU when none available (Count)
system.cpu.statFuBusy::SimdFloatAdd                 0      0.00%     10.58% # attempts to use FU when none available (Count)
system.cpu.statFuBusy::SimdFloatAlu                 0      0.00%     10.58% # attempts to use FU when none available (Count)
system.cpu.statFuBusy::SimdFloatCmp                 0      0.00%     10.58% # attempts to use FU when none available (Count)
system.cpu.statFuBusy::SimdFloatCvt                 0      0.00%     10.58% # attempts to use FU when none available (Count)
system.cpu.statFuBusy::SimdFloatDiv                 0      0.00%     10.58% # attempts to use FU when none available (Count)
system.cpu.statFuBusy::SimdFloatMisc                0      0.00%     10.58% # attempts to use FU when none available (Count)
system.cpu.statFuBusy::SimdFloatMult                0      0.00%     10.58% # attempts to use FU when none available (Count)
system.cpu.statFuBusy::SimdFloatMultAcc             0      0.00%     10.58% # attempts to use FU when none available (Count)
system.cpu.statFuBusy::SimdFloatSqrt                0      0.00%     10.58% # attempts to use FU when none available (Count)
system.cpu.statFuBusy::SimdReduceAdd                0      0.00%     10.58% # attempts to use FU when none available (Count)
system.cpu.statFuBusy::SimdReduceAlu                0      0.00%     10.58% # attempts to use FU when none available (Count)
system.cpu.statFuBusy::SimdReduceCmp                0      0.00%     10.58% # attempts to use FU when none available (Count)
system.cpu.statFuBusy::SimdFloatReduceAdd            0      0.00%     10.58% # attempts to use FU when none available (Count)
system.cpu.statFuBusy::SimdFloatReduceCmp            0      0.00%     10.58% # attempts to use FU when none available (Count)
system.cpu.statFuBusy::SimdAes                      0      0.00%     10.58% # attempts to use FU when none available (Count)
system.cpu.statFuBusy::SimdAesMix                   0      0.00%     10.58% # attempts to use FU when none available (Count)
system.cpu.statFuBusy::SimdSha1Hash                 0      0.00%     10.58% # attempts to use FU when none available (Count)
system.cpu.statFuBusy::SimdSha1Hash2                0      0.00%     10.58% # attempts to use FU when none available (Count)
system.cpu.statFuBusy::SimdSha256Hash               0      0.00%     10.58% # attempts to use FU when none available (Count)
system.cpu.statFuBusy::SimdSha256Hash2              0      0.00%     10.58% # attempts to use FU when none available (Count)
system.cpu.statFuBusy::SimdShaSigma2                0      0.00%     10.58% # attempts to use FU when none available (Count)
system.cpu.statFuBusy::SimdShaSigma3                0      0.00%     10.58% # attempts to use FU when none available (Count)
system.cpu.statFuBusy::SimdPredAlu                  0      0.00%     10.58% # attempts to use FU when none available (Count)
system.cpu.statFuBusy::MemRead               12316223     74.52%     85.10% # attempts to use FU when none available (Count)
system.cpu.statFuBusy::MemWrite               2462402     14.90%    100.00% # attempts to use FU when none available (Count)
system.cpu.statFuBusy::FloatMemRead                38      0.00%    100.00% # attempts to use FU when none available (Count)
system.cpu.statFuBusy::FloatMemWrite               46      0.00%    100.00% # attempts to use FU when none available (Count)
system.cpu.statFuBusy::IprAccess                    0      0.00%    100.00% # attempts to use FU when none available (Count)
system.cpu.statFuBusy::InstPrefetch                 0      0.00%    100.00% # attempts to use FU when none available (Count)
system.cpu.statIssuedInstType_0::No_OpClass     11990858     24.78%     24.78% # Number of instructions issued per FU type, per thread (Count)
system.cpu.statIssuedInstType_0::IntAlu       9756070     20.16%     44.94% # Number of instructions issued per FU type, per thread (Count)
system.cpu.statIssuedInstType_0::IntMult           13      0.00%     44.94% # Number of instructions issued per FU type, per thread (Count)
system.cpu.statIssuedInstType_0::IntDiv            37      0.00%     44.94% # Number of instructions issued per FU type, per thread (Count)
system.cpu.statIssuedInstType_0::FloatAdd           40      0.00%     44.94% # Number of instructions issued per FU type, per thread (Count)
system.cpu.statIssuedInstType_0::FloatCmp            0      0.00%     44.94% # Number of instructions issued per FU type, per thread (Count)
system.cpu.statIssuedInstType_0::FloatCvt            0      0.00%     44.94% # Number of instructions issued per FU type, per thread (Count)
system.cpu.statIssuedInstType_0::FloatMult            0      0.00%     44.94% # Number of instructions issued per FU type, per thread (Count)
system.cpu.statIssuedInstType_0::FloatMultAcc            0      0.00%     44.94% # Number of instructions issued per FU type, per thread (Count)
system.cpu.statIssuedInstType_0::FloatDiv            0      0.00%     44.94% # Number of instructions issued per FU type, per thread (Count)
system.cpu.statIssuedInstType_0::FloatMisc            0      0.00%     44.94% # Number of instructions issued per FU type, per thread (Count)
system.cpu.statIssuedInstType_0::FloatSqrt            0      0.00%     44.94% # Number of instructions issued per FU type, per thread (Count)
system.cpu.statIssuedInstType_0::SimdAdd            0      0.00%     44.94% # Number of instructions issued per FU type, per thread (Count)
system.cpu.statIssuedInstType_0::SimdAddAcc            0      0.00%     44.94% # Number of instructions issued per FU type, per thread (Count)
system.cpu.statIssuedInstType_0::SimdAlu          114      0.00%     44.94% # Number of instructions issued per FU type, per thread (Count)
system.cpu.statIssuedInstType_0::SimdCmp            0      0.00%     44.94% # Number of instructions issued per FU type, per thread (Count)
system.cpu.statIssuedInstType_0::SimdCvt           64      0.00%     44.94% # Number of instructions issued per FU type, per thread (Count)
system.cpu.statIssuedInstType_0::SimdMisc          294      0.00%     44.94% # Number of instructions issued per FU type, per thread (Count)
system.cpu.statIssuedInstType_0::SimdMult            0      0.00%     44.94% # Number of instructions issued per FU type, per thread (Count)
system.cpu.statIssuedInstType_0::SimdMultAcc            0      0.00%     44.94% # Number of instructions issued per FU type, per thread (Count)
system.cpu.statIssuedInstType_0::SimdShift            0      0.00%     44.94% # Number of instructions issued per FU type, per thread (Count)
system.cpu.statIssuedInstType_0::SimdShiftAcc            0      0.00%     44.94% # Number of instructions issued per FU type, per thread (Count)
system.cpu.statIssuedInstType_0::SimdDiv            0      0.00%     44.94% # Number of instructions issued per FU type, per thread (Count)
system.cpu.statIssuedInstType_0::SimdSqrt            0      0.00%     44.94% # Number of instructions issued per FU type, per thread (Count)
system.cpu.statIssuedInstType_0::SimdFloatAdd            0      0.00%     44.94% # Number of instructions issued per FU type, per thread (Count)
system.cpu.statIssuedInstType_0::SimdFloatAlu            0      0.00%     44.94% # Number of instructions issued per FU type, per thread (Count)
system.cpu.statIssuedInstType_0::SimdFloatCmp            0      0.00%     44.94% # Number of instructions issued per FU type, per thread (Count)
system.cpu.statIssuedInstType_0::SimdFloatCvt            0      0.00%     44.94% # Number of instructions issued per FU type, per thread (Count)
system.cpu.statIssuedInstType_0::SimdFloatDiv            0      0.00%     44.94% # Number of instructions issued per FU type, per thread (Count)
system.cpu.statIssuedInstType_0::SimdFloatMisc            0      0.00%     44.94% # Number of instructions issued per FU type, per thread (Count)
system.cpu.statIssuedInstType_0::SimdFloatMult            0      0.00%     44.94% # Number of instructions issued per FU type, per thread (Count)
system.cpu.statIssuedInstType_0::SimdFloatMultAcc            0      0.00%     44.94% # Number of instructions issued per FU type, per thread (Count)
system.cpu.statIssuedInstType_0::SimdFloatSqrt            0      0.00%     44.94% # Number of instructions issued per FU type, per thread (Count)
system.cpu.statIssuedInstType_0::SimdReduceAdd            0      0.00%     44.94% # Number of instructions issued per FU type, per thread (Count)
system.cpu.statIssuedInstType_0::SimdReduceAlu            0      0.00%     44.94% # Number of instructions issued per FU type, per thread (Count)
system.cpu.statIssuedInstType_0::SimdReduceCmp            0      0.00%     44.94% # Number of instructions issued per FU type, per thread (Count)
system.cpu.statIssuedInstType_0::SimdFloatReduceAdd            0      0.00%     44.94% # Number of instructions issued per FU type, per thread (Count)
system.cpu.statIssuedInstType_0::SimdFloatReduceCmp            0      0.00%     44.94% # Number of instructions issued per FU type, per thread (Count)
system.cpu.statIssuedInstType_0::SimdAes            0      0.00%     44.94% # Number of instructions issued per FU type, per thread (Count)
system.cpu.statIssuedInstType_0::SimdAesMix            0      0.00%     44.94% # Number of instructions issued per FU type, per thread (Count)
system.cpu.statIssuedInstType_0::SimdSha1Hash            0      0.00%     44.94% # Number of instructions issued per FU type, per thread (Count)
system.cpu.statIssuedInstType_0::SimdSha1Hash2            0      0.00%     44.94% # Number of instructions issued per FU type, per thread (Count)
system.cpu.statIssuedInstType_0::SimdSha256Hash            0      0.00%     44.94% # Number of instructions issued per FU type, per thread (Count)
system.cpu.statIssuedInstType_0::SimdSha256Hash2            0      0.00%     44.94% # Number of instructions issued per FU type, per thread (Count)
system.cpu.statIssuedInstType_0::SimdShaSigma2            0      0.00%     44.94% # Number of instructions issued per FU type, per thread (Count)
system.cpu.statIssuedInstType_0::SimdShaSigma3            0      0.00%     44.94% # Number of instructions issued per FU type, per thread (Count)
system.cpu.statIssuedInstType_0::SimdPredAlu            0      0.00%     44.94% # Number of instructions issued per FU type, per thread (Count)
system.cpu.statIssuedInstType_0::MemRead     13982714     28.89%     73.84% # Number of instructions issued per FU type, per thread (Count)
system.cpu.statIssuedInstType_0::MemWrite     12661032     26.16%    100.00% # Number of instructions issued per FU type, per thread (Count)
system.cpu.statIssuedInstType_0::FloatMemRead           58      0.00%    100.00% # Number of instructions issued per FU type, per thread (Count)
system.cpu.statIssuedInstType_0::FloatMemWrite          179      0.00%    100.00% # Number of instructions issued per FU type, per thread (Count)
system.cpu.statIssuedInstType_0::IprAccess            0      0.00%    100.00% # Number of instructions issued per FU type, per thread (Count)
system.cpu.statIssuedInstType_0::InstPrefetch            0      0.00%    100.00% # Number of instructions issued per FU type, per thread (Count)
system.cpu.statIssuedInstType_0::total       48391473                       # Number of instructions issued per FU type, per thread (Count)
system.cpu.issueRate                         1.142894                       # Inst issue rate ((Count/Cycle))
system.cpu.fuBusy                            16527588                       # FU busy when requested (Count)
system.cpu.fuBusyRate                        0.341539                       # FU busy rate (busy events/executed inst) ((Count/Count))
system.cpu.intInstQueueReads                155639738                       # Number of integer instruction queue reads (Count)
system.cpu.intInstQueueWrites                92853823                       # Number of integer instruction queue writes (Count)
system.cpu.intInstQueueWakeupAccesses        35949604                       # Number of integer instruction queue wakeup accesses (Count)
system.cpu.fpInstQueueReads                      1679                       # Number of floating instruction queue reads (Count)
system.cpu.fpInstQueueWrites                     1287                       # Number of floating instruction queue writes (Count)
system.cpu.fpInstQueueWakeupAccesses              762                       # Number of floating instruction queue wakeup accesses (Count)
system.cpu.vecInstQueueReads                        0                       # Number of vector instruction queue reads (Count)
system.cpu.vecInstQueueWrites                       0                       # Number of vector instruction queue writes (Count)
system.cpu.vecInstQueueWakeupAccesses               0                       # Number of vector instruction queue wakeup accesses (Count)
system.cpu.intAluAccesses                    52927320                       # Number of integer alu accesses (Count)
system.cpu.fpAluAccesses                          883                       # Number of floating point alu accesses (Count)
system.cpu.vecAluAccesses                           0                       # Number of vector alu accesses (Count)
system.cpu.numInsts                          48302197                       # Number of executed instructions (Count)
system.cpu.numLoadInsts                      13938336                       # Number of load instructions executed (Count)
system.cpu.numSquashedInsts                     89271                       # Number of squashed instructions skipped in execute (Count)
system.cpu.numSwp                                   0                       # Number of swp insts executed (Count)
system.cpu.numNop                                   0                       # Number of nop insts executed (Count)
system.cpu.numRefs                           26555411                       # Number of memory reference insts executed (Count)
system.cpu.numBranches                        1101179                       # Number of branches executed (Count)
system.cpu.numStoreInsts                     12617075                       # Number of stores executed (Count)
system.cpu.numRate                           1.140785                       # Inst execution rate ((Count/Cycle))
system.cpu.timesIdled                             259                       # Number of times that the entire CPU went into an idle state and unscheduled itself (Count)
system.cpu.idleCycles                           12229                       # Total number of cycles that the CPU has spent unscheduled due to idling (Cycle)
system.cpu.committedInsts                     5000000                       # Number of Instructions Simulated (Count)
system.cpu.committedOps                       6698741                       # Number of Ops (including micro ops) Simulated (Count)
system.cpu.cpi                               8.468235                       # CPI: Cycles Per Instruction ((Cycle/Count))
system.cpu.totalCpi                          8.468235                       # CPI: Total CPI of All Threads ((Cycle/Count))
system.cpu.ipc                               0.118088                       # IPC: Instructions Per Cycle ((Count/Cycle))
system.cpu.totalIpc                          0.118088                       # IPC: Total IPC of All Threads ((Count/Cycle))
system.cpu.intRegfileReads                   51944666                       # Number of integer regfile reads (Count)
system.cpu.intRegfileWrites                  21972785                       # Number of integer regfile writes (Count)
system.cpu.fpRegfileReads                        1202                       # Number of floating regfile reads (Count)
system.cpu.fpRegfileWrites                        530                       # Number of floating regfile writes (Count)
system.cpu.ccRegfileReads                     6551419                       # number of cc regfile reads (Count)
system.cpu.ccRegfileWrites                    6037728                       # number of cc regfile writes (Count)
system.cpu.miscRegfileReads                  28754949                       # number of misc regfile reads (Count)
system.cpu.MemDepUnit__0.insertedLoads       13958626                       # Number of loads inserted to the mem dependence unit. (Count)
system.cpu.MemDepUnit__0.insertedStores      12662409                       # Number of stores inserted to the mem dependence unit. (Count)
system.cpu.MemDepUnit__0.conflictingLoads      1917262                       # Number of conflicting loads. (Count)
system.cpu.MemDepUnit__0.conflictingStores       295013                       # Number of conflicting stores. (Count)
system.cpu.MemDepUnit__1.insertedLoads              0                       # Number of loads inserted to the mem dependence unit. (Count)
system.cpu.MemDepUnit__1.insertedStores             0                       # Number of stores inserted to the mem dependence unit. (Count)
system.cpu.MemDepUnit__1.conflictingLoads            0                       # Number of conflicting loads. (Count)
system.cpu.MemDepUnit__1.conflictingStores            0                       # Number of conflicting stores. (Count)
system.cpu.MemDepUnit__2.insertedLoads              0                       # Number of loads inserted to the mem dependence unit. (Count)
system.cpu.MemDepUnit__2.insertedStores             0                       # Number of stores inserted to the mem dependence unit. (Count)
system.cpu.MemDepUnit__2.conflictingLoads            0                       # Number of conflicting loads. (Count)
system.cpu.MemDepUnit__2.conflictingStores            0                       # Number of conflicting stores. (Count)
system.cpu.MemDepUnit__3.insertedLoads              0                       # Number of loads inserted to the mem dependence unit. (Count)
system.cpu.MemDepUnit__3.insertedStores             0                       # Number of stores inserted to the mem dependence unit. (Count)
system.cpu.MemDepUnit__3.conflictingLoads            0                       # Number of conflicting loads. (Count)
system.cpu.MemDepUnit__3.conflictingStores            0                       # Number of conflicting stores. (Count)
system.cpu.branchPred.lookups                 1902807                       # Number of BP lookups (Count)
system.cpu.branchPred.condPredicted           1900876                       # Number of conditional branches predicted (Count)
system.cpu.branchPred.condIncorrect               798                       # Number of conditional branches incorrect (Count)
system.cpu.branchPred.BTBLookups              1895455                       # Number of BTB lookups (Count)
system.cpu.branchPred.BTBHits                 1894435                       # Number of BTB hits (Count)
system.cpu.branchPred.BTBHitRatio            0.999462                       # BTB Hit Ratio (Ratio)
system.cpu.branchPred.RASUsed                     669                       # Number of times the RAS was used to get a target. (Count)
system.cpu.branchPred.RASIncorrect                  1                       # Number of incorrect RAS predictions. (Count)
system.cpu.branchPred.indirectLookups             153                       # Number of indirect predictor lookups. (Count)
system.cpu.branchPred.indirectHits                 10                       # Number of indirect target hits. (Count)
system.cpu.branchPred.indirectMisses              143                       # Number of indirect misses. (Count)
system.cpu.branchPred.indirectMispredicted           63                       # Number of mispredicted indirect branches. (Count)
system.cpu.commit.commitSquashedInsts        40974442                       # The number of squashed insts skipped by commit (Count)
system.cpu.commit.commitNonSpecStalls           87560                       # The number of times commit has been forced to stall to communicate backwards (Count)
system.cpu.commit.branchMispredicts               555                       # The number of times a branch was mispredicted (Count)
system.cpu.commit.numCommittedDist::samples     37075165                       # Number of insts commited each cycle (Count)
system.cpu.commit.numCommittedDist::mean     0.180680                       # Number of insts commited each cycle (Count)
system.cpu.commit.numCommittedDist::stdev     0.878827                       # Number of insts commited each cycle (Count)
system.cpu.commit.numCommittedDist::underflows            0      0.00%      0.00% # Number of insts commited each cycle (Count)
system.cpu.commit.numCommittedDist::0        34103395     91.98%     91.98% # Number of insts commited each cycle (Count)
system.cpu.commit.numCommittedDist::1         1776683      4.79%     96.78% # Number of insts commited each cycle (Count)
system.cpu.commit.numCommittedDist::2          495791      1.34%     98.11% # Number of insts commited each cycle (Count)
system.cpu.commit.numCommittedDist::3          296525      0.80%     98.91% # Number of insts commited each cycle (Count)
system.cpu.commit.numCommittedDist::4            2603      0.01%     98.92% # Number of insts commited each cycle (Count)
system.cpu.commit.numCommittedDist::5           52978      0.14%     99.06% # Number of insts commited each cycle (Count)
system.cpu.commit.numCommittedDist::6            4410      0.01%     99.08% # Number of insts commited each cycle (Count)
system.cpu.commit.numCommittedDist::7            3101      0.01%     99.08% # Number of insts commited each cycle (Count)
system.cpu.commit.numCommittedDist::8          339679      0.92%    100.00% # Number of insts commited each cycle (Count)
system.cpu.commit.numCommittedDist::overflows            0      0.00%    100.00% # Number of insts commited each cycle (Count)
system.cpu.commit.numCommittedDist::min_value            0                       # Number of insts commited each cycle (Count)
system.cpu.commit.numCommittedDist::max_value            8                       # Number of insts commited each cycle (Count)
system.cpu.commit.numCommittedDist::total     37075165                       # Number of insts commited each cycle (Count)
system.cpu.commit.instsCommitted              5000000                       # Number of instructions committed (Count)
system.cpu.commit.opsCommitted                6698741                       # Number of ops (including micro ops) committed (Count)
system.cpu.commit.memRefs                     3129117                       # Number of memory references committed (Count)
system.cpu.commit.loads                       1966361                       # Number of loads committed (Count)
system.cpu.commit.amos                              0                       # Number of atomic instructions committed (Count)
system.cpu.commit.membars                          24                       # Number of memory barriers committed (Count)
system.cpu.commit.branches                     252733                       # Number of branches committed (Count)
system.cpu.commit.vectorInstructions                0                       # Number of committed Vector instructions. (Count)
system.cpu.commit.floating                        537                       # Number of committed floating point instructions. (Count)
system.cpu.commit.integer                     6608845                       # Number of committed integer instructions. (Count)
system.cpu.commit.functionCalls                   207                       # Number of function calls committed. (Count)
system.cpu.commit.committedInstType_0::No_OpClass        87551      1.31%      1.31% # Class of committed instruction (Count)
system.cpu.commit.committedInstType_0::IntAlu      3481723     51.98%     53.28% # Class of committed instruction (Count)
system.cpu.commit.committedInstType_0::IntMult           13      0.00%     53.28% # Class of committed instruction (Count)
system.cpu.commit.committedInstType_0::IntDiv           35      0.00%     53.28% # Class of committed instruction (Count)
system.cpu.commit.committedInstType_0::FloatAdd           11      0.00%     53.28% # Class of committed instruction (Count)
system.cpu.commit.committedInstType_0::FloatCmp            0      0.00%     53.28% # Class of committed instruction (Count)
system.cpu.commit.committedInstType_0::FloatCvt            0      0.00%     53.28% # Class of committed instruction (Count)
system.cpu.commit.committedInstType_0::FloatMult            0      0.00%     53.28% # Class of committed instruction (Count)
system.cpu.commit.committedInstType_0::FloatMultAcc            0      0.00%     53.28% # Class of committed instruction (Count)
system.cpu.commit.committedInstType_0::FloatDiv            0      0.00%     53.28% # Class of committed instruction (Count)
system.cpu.commit.committedInstType_0::FloatMisc            0      0.00%     53.28% # Class of committed instruction (Count)
system.cpu.commit.committedInstType_0::FloatSqrt            0      0.00%     53.28% # Class of committed instruction (Count)
system.cpu.commit.committedInstType_0::SimdAdd            0      0.00%     53.28% # Class of committed instruction (Count)
system.cpu.commit.committedInstType_0::SimdAddAcc            0      0.00%     53.28% # Class of committed instruction (Count)
system.cpu.commit.committedInstType_0::SimdAlu           90      0.00%     53.28% # Class of committed instruction (Count)
system.cpu.commit.committedInstType_0::SimdCmp            0      0.00%     53.28% # Class of committed instruction (Count)
system.cpu.commit.committedInstType_0::SimdCvt           62      0.00%     53.29% # Class of committed instruction (Count)
system.cpu.commit.committedInstType_0::SimdMisc          139      0.00%     53.29% # Class of committed instruction (Count)
system.cpu.commit.committedInstType_0::SimdMult            0      0.00%     53.29% # Class of committed instruction (Count)
system.cpu.commit.committedInstType_0::SimdMultAcc            0      0.00%     53.29% # Class of committed instruction (Count)
system.cpu.commit.committedInstType_0::SimdShift            0      0.00%     53.29% # Class of committed instruction (Count)
system.cpu.commit.committedInstType_0::SimdShiftAcc            0      0.00%     53.29% # Class of committed instruction (Count)
system.cpu.commit.committedInstType_0::SimdDiv            0      0.00%     53.29% # Class of committed instruction (Count)
system.cpu.commit.committedInstType_0::SimdSqrt            0      0.00%     53.29% # Class of committed instruction (Count)
system.cpu.commit.committedInstType_0::SimdFloatAdd            0      0.00%     53.29% # Class of committed instruction (Count)
system.cpu.commit.committedInstType_0::SimdFloatAlu            0      0.00%     53.29% # Class of committed instruction (Count)
system.cpu.commit.committedInstType_0::SimdFloatCmp            0      0.00%     53.29% # Class of committed instruction (Count)
system.cpu.commit.committedInstType_0::SimdFloatCvt            0      0.00%     53.29% # Class of committed instruction (Count)
system.cpu.commit.committedInstType_0::SimdFloatDiv            0      0.00%     53.29% # Class of committed instruction (Count)
system.cpu.commit.committedInstType_0::SimdFloatMisc            0      0.00%     53.29% # Class of committed instruction (Count)
system.cpu.commit.committedInstType_0::SimdFloatMult            0      0.00%     53.29% # Class of committed instruction (Count)
system.cpu.commit.committedInstType_0::SimdFloatMultAcc            0      0.00%     53.29% # Class of committed instruction (Count)
system.cpu.commit.committedInstType_0::SimdFloatSqrt            0      0.00%     53.29% # Class of committed instruction (Count)
system.cpu.commit.committedInstType_0::SimdReduceAdd            0      0.00%     53.29% # Class of committed instruction (Count)
system.cpu.commit.committedInstType_0::SimdReduceAlu            0      0.00%     53.29% # Class of committed instruction (Count)
system.cpu.commit.committedInstType_0::SimdReduceCmp            0      0.00%     53.29% # Class of committed instruction (Count)
system.cpu.commit.committedInstType_0::SimdFloatReduceAdd            0      0.00%     53.29% # Class of committed instruction (Count)
system.cpu.commit.committedInstType_0::SimdFloatReduceCmp            0      0.00%     53.29% # Class of committed instruction (Count)
system.cpu.commit.committedInstType_0::SimdAes            0      0.00%     53.29% # Class of committed instruction (Count)
system.cpu.commit.committedInstType_0::SimdAesMix            0      0.00%     53.29% # Class of committed instruction (Count)
system.cpu.commit.committedInstType_0::SimdSha1Hash            0      0.00%     53.29% # Class of committed instruction (Count)
system.cpu.commit.committedInstType_0::SimdSha1Hash2            0      0.00%     53.29% # Class of committed instruction (Count)
system.cpu.commit.committedInstType_0::SimdSha256Hash            0      0.00%     53.29% # Class of committed instruction (Count)
system.cpu.commit.committedInstType_0::SimdSha256Hash2            0      0.00%     53.29% # Class of committed instruction (Count)
system.cpu.commit.committedInstType_0::SimdShaSigma2            0      0.00%     53.29% # Class of committed instruction (Count)
system.cpu.commit.committedInstType_0::SimdShaSigma3            0      0.00%     53.29% # Class of committed instruction (Count)
system.cpu.commit.committedInstType_0::SimdPredAlu            0      0.00%     53.29% # Class of committed instruction (Count)
system.cpu.commit.committedInstType_0::MemRead      1966311     29.35%     82.64% # Class of committed instruction (Count)
system.cpu.commit.committedInstType_0::MemWrite      1162592     17.36%    100.00% # Class of committed instruction (Count)
system.cpu.commit.committedInstType_0::FloatMemRead           50      0.00%    100.00% # Class of committed instruction (Count)
system.cpu.commit.committedInstType_0::FloatMemWrite          164      0.00%    100.00% # Class of committed instruction (Count)
system.cpu.commit.committedInstType_0::IprAccess            0      0.00%    100.00% # Class of committed instruction (Count)
system.cpu.commit.committedInstType_0::InstPrefetch            0      0.00%    100.00% # Class of committed instruction (Count)
system.cpu.commit.committedInstType_0::total      6698741                       # Class of committed instruction (Count)
system.cpu.commit.commitEligibleSamples        339679                       # number cycles where commit BW limit reached (Cycle)
system.cpu.dcache.demandHits::cpu.data       13764420                       # number of demand (read+write) hits (Count)
system.cpu.dcache.demandHits::total          13764420                       # number of demand (read+write) hits (Count)
system.cpu.dcache.overallHits::cpu.data      13764420                       # number of overall hits (Count)
system.cpu.dcache.overallHits::total         13764420                       # number of overall hits (Count)
system.cpu.dcache.demandMisses::cpu.data       360140                       # number of demand (read+write) misses (Count)
system.cpu.dcache.demandMisses::total          360140                       # number of demand (read+write) misses (Count)
system.cpu.dcache.overallMisses::cpu.data       376524                       # number of overall misses (Count)
system.cpu.dcache.overallMisses::total         376524                       # number of overall misses (Count)
system.cpu.dcache.demandMissLatency::cpu.data  23296723000                       # number of demand (read+write) miss ticks (Tick)
system.cpu.dcache.demandMissLatency::total  23296723000                       # number of demand (read+write) miss ticks (Tick)
system.cpu.dcache.overallMissLatency::cpu.data  23296723000                       # number of overall miss ticks (Tick)
system.cpu.dcache.overallMissLatency::total  23296723000                       # number of overall miss ticks (Tick)
system.cpu.dcache.demandAccesses::cpu.data     14124560                       # number of demand (read+write) accesses (Count)
system.cpu.dcache.demandAccesses::total      14124560                       # number of demand (read+write) accesses (Count)
system.cpu.dcache.overallAccesses::cpu.data     14140944                       # number of overall (read+write) accesses (Count)
system.cpu.dcache.overallAccesses::total     14140944                       # number of overall (read+write) accesses (Count)
system.cpu.dcache.demandMissRate::cpu.data     0.025497                       # miss rate for demand accesses (Ratio)
system.cpu.dcache.demandMissRate::total      0.025497                       # miss rate for demand accesses (Ratio)
system.cpu.dcache.overallMissRate::cpu.data     0.026627                       # miss rate for overall accesses (Ratio)
system.cpu.dcache.overallMissRate::total     0.026627                       # miss rate for overall accesses (Ratio)
system.cpu.dcache.demandAvgMissLatency::cpu.data 64687.963014                       # average overall miss latency in ticks ((Tick/Count))
system.cpu.dcache.demandAvgMissLatency::total 64687.963014                       # average overall miss latency in ticks ((Tick/Count))
system.cpu.dcache.overallAvgMissLatency::cpu.data 61873.142217                       # average overall miss latency ((Tick/Count))
system.cpu.dcache.overallAvgMissLatency::total 61873.142217                       # average overall miss latency ((Tick/Count))
system.cpu.dcache.blockedCycles::no_mshrs       272514                       # number of cycles access was blocked (Cycle)
system.cpu.dcache.blockedCycles::no_targets         1666                       # number of cycles access was blocked (Cycle)
system.cpu.dcache.blockedCauses::no_mshrs         7914                       # number of times access was blocked (Count)
system.cpu.dcache.blockedCauses::no_targets           47                       # number of times access was blocked (Count)
system.cpu.dcache.avgBlocked::no_mshrs      34.434420                       # average number of cycles each access was blocked ((Cycle/Count))
system.cpu.dcache.avgBlocked::no_targets    35.446809                       # average number of cycles each access was blocked ((Cycle/Count))
system.cpu.dcache.writebacks::writebacks       292217                       # number of writebacks (Count)
system.cpu.dcache.writebacks::total            292217                       # number of writebacks (Count)
system.cpu.dcache.demandMshrHits::cpu.data       155068                       # number of demand (read+write) MSHR hits (Count)
system.cpu.dcache.demandMshrHits::total        155068                       # number of demand (read+write) MSHR hits (Count)
system.cpu.dcache.overallMshrHits::cpu.data       155068                       # number of overall MSHR hits (Count)
system.cpu.dcache.overallMshrHits::total       155068                       # number of overall MSHR hits (Count)
system.cpu.dcache.demandMshrMisses::cpu.data       205072                       # number of demand (read+write) MSHR misses (Count)
system.cpu.dcache.demandMshrMisses::total       205072                       # number of demand (read+write) MSHR misses (Count)
system.cpu.dcache.overallMshrMisses::cpu.data       221456                       # number of overall MSHR misses (Count)
system.cpu.dcache.overallMshrMisses::cpu.dcache.prefetcher       167309                       # number of overall MSHR misses (Count)
system.cpu.dcache.overallMshrMisses::total       388765                       # number of overall MSHR misses (Count)
system.cpu.dcache.demandMshrMissLatency::cpu.data  15851984000                       # number of demand (read+write) MSHR miss ticks (Tick)
system.cpu.dcache.demandMshrMissLatency::total  15851984000                       # number of demand (read+write) MSHR miss ticks (Tick)
system.cpu.dcache.overallMshrMissLatency::cpu.data  17306388000                       # number of overall MSHR miss ticks (Tick)
system.cpu.dcache.overallMshrMissLatency::cpu.dcache.prefetcher  12066039604                       # number of overall MSHR miss ticks (Tick)
system.cpu.dcache.overallMshrMissLatency::total  29372427604                       # number of overall MSHR miss ticks (Tick)
system.cpu.dcache.demandMshrMissRate::cpu.data     0.014519                       # mshr miss ratio for demand accesses (Ratio)
system.cpu.dcache.demandMshrMissRate::total     0.014519                       # mshr miss ratio for demand accesses (Ratio)
system.cpu.dcache.overallMshrMissRate::cpu.data     0.015661                       # mshr miss ratio for overall accesses (Ratio)
system.cpu.dcache.overallMshrMissRate::cpu.dcache.prefetcher          inf                       # mshr miss ratio for overall accesses (Ratio)
system.cpu.dcache.overallMshrMissRate::total     0.027492                       # mshr miss ratio for overall accesses (Ratio)
system.cpu.dcache.demandAvgMshrMissLatency::cpu.data 77299.602091                       # average overall mshr miss latency ((Tick/Count))
system.cpu.dcache.demandAvgMshrMissLatency::total 77299.602091                       # average overall mshr miss latency ((Tick/Count))
system.cpu.dcache.overallAvgMshrMissLatency::cpu.data 78148.200997                       # average overall mshr miss latency ((Tick/Count))
system.cpu.dcache.overallAvgMshrMissLatency::cpu.dcache.prefetcher 72118.293720                       # average overall mshr miss latency ((Tick/Count))
system.cpu.dcache.overallAvgMshrMissLatency::total 75553.168634                       # average overall mshr miss latency ((Tick/Count))
system.cpu.dcache.replacements                 387741                       # number of replacements (Count)
system.cpu.dcache.HardPFReq.mshrMisses::cpu.dcache.prefetcher       167309                       # number of HardPFReq MSHR misses (Count)
system.cpu.dcache.HardPFReq.mshrMisses::total       167309                       # number of HardPFReq MSHR misses (Count)
system.cpu.dcache.HardPFReq.mshrMissLatency::cpu.dcache.prefetcher  12066039604                       # number of HardPFReq MSHR miss ticks (Tick)
system.cpu.dcache.HardPFReq.mshrMissLatency::total  12066039604                       # number of HardPFReq MSHR miss ticks (Tick)
system.cpu.dcache.HardPFReq.mshrMissRate::cpu.dcache.prefetcher          inf                       # mshr miss rate for HardPFReq accesses (Ratio)
system.cpu.dcache.HardPFReq.mshrMissRate::total          inf                       # mshr miss rate for HardPFReq accesses (Ratio)
system.cpu.dcache.HardPFReq.avgMshrMissLatency::cpu.dcache.prefetcher 72118.293720                       # average HardPFReq mshr miss latency ((Tick/Count))
system.cpu.dcache.HardPFReq.avgMshrMissLatency::total 72118.293720                       # average HardPFReq mshr miss latency ((Tick/Count))
system.cpu.dcache.LockedRMWReadReq.hits::cpu.data           12                       # number of LockedRMWReadReq hits (Count)
system.cpu.dcache.LockedRMWReadReq.hits::total           12                       # number of LockedRMWReadReq hits (Count)
system.cpu.dcache.LockedRMWReadReq.accesses::cpu.data           12                       # number of LockedRMWReadReq accesses(hits+misses) (Count)
system.cpu.dcache.LockedRMWReadReq.accesses::total           12                       # number of LockedRMWReadReq accesses(hits+misses) (Count)
system.cpu.dcache.LockedRMWReadReq.mshrMissLatency::cpu.data       158000                       # number of LockedRMWReadReq MSHR miss ticks (Tick)
system.cpu.dcache.LockedRMWReadReq.mshrMissLatency::total       158000                       # number of LockedRMWReadReq MSHR miss ticks (Tick)
system.cpu.dcache.LockedRMWReadReq.avgMshrMissLatency::cpu.data          inf                       # average LockedRMWReadReq mshr miss latency ((Tick/Count))
system.cpu.dcache.LockedRMWReadReq.avgMshrMissLatency::total          inf                       # average LockedRMWReadReq mshr miss latency ((Tick/Count))
system.cpu.dcache.LockedRMWWriteReq.hits::cpu.data           12                       # number of LockedRMWWriteReq hits (Count)
system.cpu.dcache.LockedRMWWriteReq.hits::total           12                       # number of LockedRMWWriteReq hits (Count)
system.cpu.dcache.LockedRMWWriteReq.accesses::cpu.data           12                       # number of LockedRMWWriteReq accesses(hits+misses) (Count)
system.cpu.dcache.LockedRMWWriteReq.accesses::total           12                       # number of LockedRMWWriteReq accesses(hits+misses) (Count)
system.cpu.dcache.ReadReq.hits::cpu.data     12745277                       # number of ReadReq hits (Count)
system.cpu.dcache.ReadReq.hits::total        12745277                       # number of ReadReq hits (Count)
system.cpu.dcache.ReadReq.misses::cpu.data       216539                       # number of ReadReq misses (Count)
system.cpu.dcache.ReadReq.misses::total        216539                       # number of ReadReq misses (Count)
system.cpu.dcache.ReadReq.missLatency::cpu.data  10575043000                       # number of ReadReq miss ticks (Tick)
system.cpu.dcache.ReadReq.missLatency::total  10575043000                       # number of ReadReq miss ticks (Tick)
system.cpu.dcache.ReadReq.accesses::cpu.data     12961816                       # number of ReadReq accesses(hits+misses) (Count)
system.cpu.dcache.ReadReq.accesses::total     12961816                       # number of ReadReq accesses(hits+misses) (Count)
system.cpu.dcache.ReadReq.missRate::cpu.data     0.016706                       # miss rate for ReadReq accesses (Ratio)
system.cpu.dcache.ReadReq.missRate::total     0.016706                       # miss rate for ReadReq accesses (Ratio)
system.cpu.dcache.ReadReq.avgMissLatency::cpu.data 48836.666836                       # average ReadReq miss latency ((Tick/Count))
system.cpu.dcache.ReadReq.avgMissLatency::total 48836.666836                       # average ReadReq miss latency ((Tick/Count))
system.cpu.dcache.ReadReq.mshrHits::cpu.data       154362                       # number of ReadReq MSHR hits (Count)
system.cpu.dcache.ReadReq.mshrHits::total       154362                       # number of ReadReq MSHR hits (Count)
system.cpu.dcache.ReadReq.mshrMisses::cpu.data        62177                       # number of ReadReq MSHR misses (Count)
system.cpu.dcache.ReadReq.mshrMisses::total        62177                       # number of ReadReq MSHR misses (Count)
system.cpu.dcache.ReadReq.mshrMissLatency::cpu.data   3327215000                       # number of ReadReq MSHR miss ticks (Tick)
system.cpu.dcache.ReadReq.mshrMissLatency::total   3327215000                       # number of ReadReq MSHR miss ticks (Tick)
system.cpu.dcache.ReadReq.mshrMissRate::cpu.data     0.004797                       # mshr miss rate for ReadReq accesses (Ratio)
system.cpu.dcache.ReadReq.mshrMissRate::total     0.004797                       # mshr miss rate for ReadReq accesses (Ratio)
system.cpu.dcache.ReadReq.avgMshrMissLatency::cpu.data 53511.989964                       # average ReadReq mshr miss latency ((Tick/Count))
system.cpu.dcache.ReadReq.avgMshrMissLatency::total 53511.989964                       # average ReadReq mshr miss latency ((Tick/Count))
system.cpu.dcache.SoftPFReq.misses::cpu.data        16384                       # number of SoftPFReq misses (Count)
system.cpu.dcache.SoftPFReq.misses::total        16384                       # number of SoftPFReq misses (Count)
system.cpu.dcache.SoftPFReq.accesses::cpu.data        16384                       # number of SoftPFReq accesses(hits+misses) (Count)
system.cpu.dcache.SoftPFReq.accesses::total        16384                       # number of SoftPFReq accesses(hits+misses) (Count)
system.cpu.dcache.SoftPFReq.missRate::cpu.data            1                       # miss rate for SoftPFReq accesses (Ratio)
system.cpu.dcache.SoftPFReq.missRate::total            1                       # miss rate for SoftPFReq accesses (Ratio)
system.cpu.dcache.SoftPFReq.mshrMisses::cpu.data        16384                       # number of SoftPFReq MSHR misses (Count)
system.cpu.dcache.SoftPFReq.mshrMisses::total        16384                       # number of SoftPFReq MSHR misses (Count)
system.cpu.dcache.SoftPFReq.mshrMissLatency::cpu.data   1454404000                       # number of SoftPFReq MSHR miss ticks (Tick)
system.cpu.dcache.SoftPFReq.mshrMissLatency::total   1454404000                       # number of SoftPFReq MSHR miss ticks (Tick)
system.cpu.dcache.SoftPFReq.mshrMissRate::cpu.data            1                       # mshr miss rate for SoftPFReq accesses (Ratio)
system.cpu.dcache.SoftPFReq.mshrMissRate::total            1                       # mshr miss rate for SoftPFReq accesses (Ratio)
system.cpu.dcache.SoftPFReq.avgMshrMissLatency::cpu.data 88769.775391                       # average SoftPFReq mshr miss latency ((Tick/Count))
system.cpu.dcache.SoftPFReq.avgMshrMissLatency::total 88769.775391                       # average SoftPFReq mshr miss latency ((Tick/Count))
system.cpu.dcache.WriteReq.hits::cpu.data      1019143                       # number of WriteReq hits (Count)
system.cpu.dcache.WriteReq.hits::total        1019143                       # number of WriteReq hits (Count)
system.cpu.dcache.WriteReq.misses::cpu.data       143601                       # number of WriteReq misses (Count)
system.cpu.dcache.WriteReq.misses::total       143601                       # number of WriteReq misses (Count)
system.cpu.dcache.WriteReq.missLatency::cpu.data  12721680000                       # number of WriteReq miss ticks (Tick)
system.cpu.dcache.WriteReq.missLatency::total  12721680000                       # number of WriteReq miss ticks (Tick)
system.cpu.dcache.WriteReq.accesses::cpu.data      1162744                       # number of WriteReq accesses(hits+misses) (Count)
system.cpu.dcache.WriteReq.accesses::total      1162744                       # number of WriteReq accesses(hits+misses) (Count)
system.cpu.dcache.WriteReq.missRate::cpu.data     0.123502                       # miss rate for WriteReq accesses (Ratio)
system.cpu.dcache.WriteReq.missRate::total     0.123502                       # miss rate for WriteReq accesses (Ratio)
system.cpu.dcache.WriteReq.avgMissLatency::cpu.data 88590.469426                       # average WriteReq miss latency ((Tick/Count))
system.cpu.dcache.WriteReq.avgMissLatency::total 88590.469426                       # average WriteReq miss latency ((Tick/Count))
system.cpu.dcache.WriteReq.mshrHits::cpu.data          706                       # number of WriteReq MSHR hits (Count)
system.cpu.dcache.WriteReq.mshrHits::total          706                       # number of WriteReq MSHR hits (Count)
system.cpu.dcache.WriteReq.mshrMisses::cpu.data       142895                       # number of WriteReq MSHR misses (Count)
system.cpu.dcache.WriteReq.mshrMisses::total       142895                       # number of WriteReq MSHR misses (Count)
system.cpu.dcache.WriteReq.mshrMissLatency::cpu.data  12524769000                       # number of WriteReq MSHR miss ticks (Tick)
system.cpu.dcache.WriteReq.mshrMissLatency::total  12524769000                       # number of WriteReq MSHR miss ticks (Tick)
system.cpu.dcache.WriteReq.mshrMissRate::cpu.data     0.122895                       # mshr miss rate for WriteReq accesses (Ratio)
system.cpu.dcache.WriteReq.mshrMissRate::total     0.122895                       # mshr miss rate for WriteReq accesses (Ratio)
system.cpu.dcache.WriteReq.avgMshrMissLatency::cpu.data 87650.155709                       # average WriteReq mshr miss latency ((Tick/Count))
system.cpu.dcache.WriteReq.avgMshrMissLatency::total 87650.155709                       # average WriteReq mshr miss latency ((Tick/Count))
system.cpu.dcache.power_state.pwrStateResidencyTicks::UNDEFINED  42341163000                       # Cumulative time (in ticks) in various power states (Tick)
system.cpu.dcache.prefetcher.demandMshrMisses       205072                       # demands not covered by prefetchs (Count)
system.cpu.dcache.prefetcher.pfIssued          218511                       # number of hwpf issued (Count)
system.cpu.dcache.prefetcher.pfUnused               5                       # number of HardPF blocks evicted w/o reference (Count)
system.cpu.dcache.prefetcher.pfUseful          166540                       # number of useful prefetch (Count)
system.cpu.dcache.prefetcher.pfUsefulButMiss            0                       # number of hit on prefetch but cache block is not in an usable state (Count)
system.cpu.dcache.prefetcher.accuracy        0.762158                       # accuracy of the prefetcher (Count)
system.cpu.dcache.prefetcher.coverage        0.448156                       # coverage brought by this prefetcher (Count)
system.cpu.dcache.prefetcher.pfHitInCache        51201                       # number of prefetches hitting in cache (Count)
system.cpu.dcache.prefetcher.pfHitInMSHR            1                       # number of prefetches hitting in a MSHR (Count)
system.cpu.dcache.prefetcher.pfHitInWB              0                       # number of prefetches hit in the Write Buffer (Count)
system.cpu.dcache.prefetcher.pfLate             51202                       # number of late prefetches (hitting in cache, MSHR or WB) (Count)
system.cpu.dcache.prefetcher.pfIdentified       230529                       # number of prefetch candidates identified (Count)
system.cpu.dcache.prefetcher.pfBufferHit        11345                       # number of redundant prefetches already in prefetch queue (Count)
system.cpu.dcache.prefetcher.pfInCache              0                       # number of redundant prefetches already in cache/mshr dropped (Count)
system.cpu.dcache.prefetcher.pfRemovedDemand          106                       # number of prefetches dropped due to a demand for the same address (Count)
system.cpu.dcache.prefetcher.pfRemovedFull            0                       # number of prefetches dropped due to prefetch queue size (Count)
system.cpu.dcache.prefetcher.pfSpanPage        246427                       # number of prefetches that crossed the page (Count)
system.cpu.dcache.prefetcher.pfUsefulSpanPage            0                       # number of prefetches that is useful and crossed the page (Count)
system.cpu.dcache.prefetcher.power_state.pwrStateResidencyTicks::UNDEFINED  42341163000                       # Cumulative time (in ticks) in various power states (Tick)
system.cpu.dcache.tags.tagsInUse           796.445345                       # Average ticks per tags in use ((Tick/Count))
system.cpu.dcache.tags.totalRefs             14153209                       # Total number of references to valid blocks. (Count)
system.cpu.dcache.tags.sampledRefs             388765                       # Sample count of references to valid blocks. (Count)
system.cpu.dcache.tags.avgRefs              36.405564                       # Average number of references to valid blocks. ((Count/Count))
system.cpu.dcache.tags.warmupTick              200000                       # The tick when the warmup percentage was hit. (Tick)
system.cpu.dcache.tags.occupancies::cpu.data   491.226071                       # Average occupied blocks per tick, per requestor ((Count/Tick))
system.cpu.dcache.tags.occupancies::cpu.dcache.prefetcher   305.219274                       # Average occupied blocks per tick, per requestor ((Count/Tick))
system.cpu.dcache.tags.avgOccs::cpu.data     0.479713                       # Average percentage of cache occupancy ((Ratio/Tick))
system.cpu.dcache.tags.avgOccs::cpu.dcache.prefetcher     0.298066                       # Average percentage of cache occupancy ((Ratio/Tick))
system.cpu.dcache.tags.avgOccs::total        0.777779                       # Average percentage of cache occupancy ((Ratio/Tick))
system.cpu.dcache.tags.occupanciesTaskId::1022          408                       # Occupied blocks per task id (Count)
system.cpu.dcache.tags.occupanciesTaskId::1024          616                       # Occupied blocks per task id (Count)
system.cpu.dcache.tags.ageTaskId_1022::0           28                       # Occupied blocks per task id, per block age (Count)
system.cpu.dcache.tags.ageTaskId_1022::1          209                       # Occupied blocks per task id, per block age (Count)
system.cpu.dcache.tags.ageTaskId_1022::2          171                       # Occupied blocks per task id, per block age (Count)
system.cpu.dcache.tags.ageTaskId_1024::0           34                       # Occupied blocks per task id, per block age (Count)
system.cpu.dcache.tags.ageTaskId_1024::1          319                       # Occupied blocks per task id, per block age (Count)
system.cpu.dcache.tags.ageTaskId_1024::2          263                       # Occupied blocks per task id, per block age (Count)
system.cpu.dcache.tags.ratioOccsTaskId::1022     0.398438                       # Ratio of occupied blocks and all blocks, per task id (Ratio)
system.cpu.dcache.tags.ratioOccsTaskId::1024     0.601562                       # Ratio of occupied blocks and all blocks, per task id (Ratio)
system.cpu.dcache.tags.tagAccesses           56952637                       # Number of tag accesses (Count)
system.cpu.dcache.tags.dataAccesses          56952637                       # Number of data accesses (Count)
system.cpu.dcache.tags.power_state.pwrStateResidencyTicks::UNDEFINED  42341163000                       # Cumulative time (in ticks) in various power states (Tick)
system.cpu.decode.idleCycles                  2375365                       # Number of cycles decode is idle (Cycle)
system.cpu.decode.blockedCycles              31743652                       # Number of cycles decode is blocked (Cycle)
system.cpu.decode.runCycles                   5863850                       # Number of cycles decode is running (Cycle)
system.cpu.decode.unblockCycles               1596046                       # Number of cycles decode is unblocking (Cycle)
system.cpu.decode.squashCycles                 750035                       # Number of cycles decode is squashing (Cycle)
system.cpu.decode.branchResolved              1095870                       # Number of times decode resolved a branch (Count)
system.cpu.decode.branchMispred                   250                       # Number of times decode detected a branch misprediction (Count)
system.cpu.decode.decodedInsts               56754939                       # Number of instructions handled by decode (Count)
system.cpu.decode.squashedInsts                  1093                       # Number of squashed instructions handled by decode (Count)
system.cpu.fetch.icacheStallCycles            6287858                       # Number of cycles fetch is stalled on an Icache miss (Cycle)
system.cpu.fetch.insts                       59126634                       # Number of instructions fetch has processed (Count)
system.cpu.fetch.branches                     1902807                       # Number of branches that fetch encountered (Count)
system.cpu.fetch.predictedBranches            1895114                       # Number of branches that fetch has predicted taken (Count)
system.cpu.fetch.cycles                      35290742                       # Number of cycles fetch has run and was not squashing or blocked (Cycle)
system.cpu.fetch.squashCycles                 1500562                       # Number of cycles fetch has spent squashing (Cycle)
system.cpu.fetch.miscStallCycles                   13                       # Number of cycles fetch has spent waiting on interrupts, or bad addresses, or out of MSHRs (Cycle)
system.cpu.fetch.pendingTrapStallCycles            53                       # Number of stall cycles due to pending traps (Cycle)
system.cpu.fetch.icacheWaitRetryStallCycles            1                       # Number of stall cycles due to full MSHR (Cycle)
system.cpu.fetch.cacheLines                   5793515                       # Number of cache lines fetched (Count)
system.cpu.fetch.icacheSquashes                   411                       # Number of outstanding Icache misses that were squashed (Count)
system.cpu.fetch.nisnDist::samples           42328948                       # Number of instructions fetched each cycle (Total) (Count)
system.cpu.fetch.nisnDist::mean              2.047156                       # Number of instructions fetched each cycle (Total) (Count)
system.cpu.fetch.nisnDist::stdev             3.187390                       # Number of instructions fetched each cycle (Total) (Count)
system.cpu.fetch.nisnDist::underflows               0      0.00%      0.00% # Number of instructions fetched each cycle (Total) (Count)
system.cpu.fetch.nisnDist::0                 28266944     66.78%     66.78% # Number of instructions fetched each cycle (Total) (Count)
system.cpu.fetch.nisnDist::1                   354891      0.84%     67.62% # Number of instructions fetched each cycle (Total) (Count)
system.cpu.fetch.nisnDist::2                    92181      0.22%     67.84% # Number of instructions fetched each cycle (Total) (Count)
system.cpu.fetch.nisnDist::3                  2981841      7.04%     74.88% # Number of instructions fetched each cycle (Total) (Count)
system.cpu.fetch.nisnDist::4                  1051017      2.48%     77.36% # Number of instructions fetched each cycle (Total) (Count)
system.cpu.fetch.nisnDist::5                   569413      1.35%     78.71% # Number of instructions fetched each cycle (Total) (Count)
system.cpu.fetch.nisnDist::6                   879853      2.08%     80.79% # Number of instructions fetched each cycle (Total) (Count)
system.cpu.fetch.nisnDist::7                   223526      0.53%     81.31% # Number of instructions fetched each cycle (Total) (Count)
system.cpu.fetch.nisnDist::8                  7909282     18.69%    100.00% # Number of instructions fetched each cycle (Total) (Count)
system.cpu.fetch.nisnDist::overflows                0      0.00%    100.00% # Number of instructions fetched each cycle (Total) (Count)
system.cpu.fetch.nisnDist::min_value                0                       # Number of instructions fetched each cycle (Total) (Count)
system.cpu.fetch.nisnDist::max_value                8                       # Number of instructions fetched each cycle (Total) (Count)
system.cpu.fetch.nisnDist::total             42328948                       # Number of instructions fetched each cycle (Total) (Count)
system.cpu.fetch.branchRate                  0.044940                       # Number of branch fetches per cycle (Ratio)
system.cpu.fetch.rate                        1.396433                       # Number of inst fetches per cycle ((Count/Cycle))
system.cpu.icache.demandHits::cpu.inst        5792894                       # number of demand (read+write) hits (Count)
system.cpu.icache.demandHits::total           5792894                       # number of demand (read+write) hits (Count)
system.cpu.icache.overallHits::cpu.inst       5792894                       # number of overall hits (Count)
system.cpu.icache.overallHits::total          5792894                       # number of overall hits (Count)
system.cpu.icache.demandMisses::cpu.inst          621                       # number of demand (read+write) misses (Count)
system.cpu.icache.demandMisses::total             621                       # number of demand (read+write) misses (Count)
system.cpu.icache.overallMisses::cpu.inst          621                       # number of overall misses (Count)
system.cpu.icache.overallMisses::total            621                       # number of overall misses (Count)
system.cpu.icache.demandMissLatency::cpu.inst     46456999                       # number of demand (read+write) miss ticks (Tick)
system.cpu.icache.demandMissLatency::total     46456999                       # number of demand (read+write) miss ticks (Tick)
system.cpu.icache.overallMissLatency::cpu.inst     46456999                       # number of overall miss ticks (Tick)
system.cpu.icache.overallMissLatency::total     46456999                       # number of overall miss ticks (Tick)
system.cpu.icache.demandAccesses::cpu.inst      5793515                       # number of demand (read+write) accesses (Count)
system.cpu.icache.demandAccesses::total       5793515                       # number of demand (read+write) accesses (Count)
system.cpu.icache.overallAccesses::cpu.inst      5793515                       # number of overall (read+write) accesses (Count)
system.cpu.icache.overallAccesses::total      5793515                       # number of overall (read+write) accesses (Count)
system.cpu.icache.demandMissRate::cpu.inst     0.000107                       # miss rate for demand accesses (Ratio)
system.cpu.icache.demandMissRate::total      0.000107                       # miss rate for demand accesses (Ratio)
system.cpu.icache.overallMissRate::cpu.inst     0.000107                       # miss rate for overall accesses (Ratio)
system.cpu.icache.overallMissRate::total     0.000107                       # miss rate for overall accesses (Ratio)
system.cpu.icache.demandAvgMissLatency::cpu.inst 74809.982287                       # average overall miss latency in ticks ((Tick/Count))
system.cpu.icache.demandAvgMissLatency::total 74809.982287                       # average overall miss latency in ticks ((Tick/Count))
system.cpu.icache.overallAvgMissLatency::cpu.inst 74809.982287                       # average overall miss latency ((Tick/Count))
system.cpu.icache.overallAvgMissLatency::total 74809.982287                       # average overall miss latency ((Tick/Count))
system.cpu.icache.blockedCycles::no_mshrs           76                       # number of cycles access was blocked (Cycle)
system.cpu.icache.blockedCycles::no_targets            0                       # number of cycles access was blocked (Cycle)
system.cpu.icache.blockedCauses::no_mshrs            4                       # number of times access was blocked (Count)
system.cpu.icache.blockedCauses::no_targets            0                       # number of times access was blocked (Count)
system.cpu.icache.avgBlocked::no_mshrs             19                       # average number of cycles each access was blocked ((Cycle/Count))
system.cpu.icache.avgBlocked::no_targets          nan                       # average number of cycles each access was blocked ((Cycle/Count))
system.cpu.icache.demandMshrHits::cpu.inst          155                       # number of demand (read+write) MSHR hits (Count)
system.cpu.icache.demandMshrHits::total           155                       # number of demand (read+write) MSHR hits (Count)
system.cpu.icache.overallMshrHits::cpu.inst          155                       # number of overall MSHR hits (Count)
system.cpu.icache.overallMshrHits::total          155                       # number of overall MSHR hits (Count)
system.cpu.icache.demandMshrMisses::cpu.inst          466                       # number of demand (read+write) MSHR misses (Count)
system.cpu.icache.demandMshrMisses::total          466                       # number of demand (read+write) MSHR misses (Count)
system.cpu.icache.overallMshrMisses::cpu.inst          466                       # number of overall MSHR misses (Count)
system.cpu.icache.overallMshrMisses::total          466                       # number of overall MSHR misses (Count)
system.cpu.icache.demandMshrMissLatency::cpu.inst     37768999                       # number of demand (read+write) MSHR miss ticks (Tick)
system.cpu.icache.demandMshrMissLatency::total     37768999                       # number of demand (read+write) MSHR miss ticks (Tick)
system.cpu.icache.overallMshrMissLatency::cpu.inst     37768999                       # number of overall MSHR miss ticks (Tick)
system.cpu.icache.overallMshrMissLatency::total     37768999                       # number of overall MSHR miss ticks (Tick)
system.cpu.icache.demandMshrMissRate::cpu.inst     0.000080                       # mshr miss ratio for demand accesses (Ratio)
system.cpu.icache.demandMshrMissRate::total     0.000080                       # mshr miss ratio for demand accesses (Ratio)
system.cpu.icache.overallMshrMissRate::cpu.inst     0.000080                       # mshr miss ratio for overall accesses (Ratio)
system.cpu.icache.overallMshrMissRate::total     0.000080                       # mshr miss ratio for overall accesses (Ratio)
system.cpu.icache.demandAvgMshrMissLatency::cpu.inst 81049.354077                       # average overall mshr miss latency ((Tick/Count))
system.cpu.icache.demandAvgMshrMissLatency::total 81049.354077                       # average overall mshr miss latency ((Tick/Count))
system.cpu.icache.overallAvgMshrMissLatency::cpu.inst 81049.354077                       # average overall mshr miss latency ((Tick/Count))
system.cpu.icache.overallAvgMshrMissLatency::total 81049.354077                       # average overall mshr miss latency ((Tick/Count))
system.cpu.icache.replacements                     13                       # number of replacements (Count)
system.cpu.icache.ReadReq.hits::cpu.inst      5792894                       # number of ReadReq hits (Count)
system.cpu.icache.ReadReq.hits::total         5792894                       # number of ReadReq hits (Count)
system.cpu.icache.ReadReq.misses::cpu.inst          621                       # number of ReadReq misses (Count)
system.cpu.icache.ReadReq.misses::total           621                       # number of ReadReq misses (Count)
system.cpu.icache.ReadReq.missLatency::cpu.inst     46456999                       # number of ReadReq miss ticks (Tick)
system.cpu.icache.ReadReq.missLatency::total     46456999                       # number of ReadReq miss ticks (Tick)
system.cpu.icache.ReadReq.accesses::cpu.inst      5793515                       # number of ReadReq accesses(hits+misses) (Count)
system.cpu.icache.ReadReq.accesses::total      5793515                       # number of ReadReq accesses(hits+misses) (Count)
system.cpu.icache.ReadReq.missRate::cpu.inst     0.000107                       # miss rate for ReadReq accesses (Ratio)
system.cpu.icache.ReadReq.missRate::total     0.000107                       # miss rate for ReadReq accesses (Ratio)
system.cpu.icache.ReadReq.avgMissLatency::cpu.inst 74809.982287                       # average ReadReq miss latency ((Tick/Count))
system.cpu.icache.ReadReq.avgMissLatency::total 74809.982287                       # average ReadReq miss latency ((Tick/Count))
system.cpu.icache.ReadReq.mshrHits::cpu.inst          155                       # number of ReadReq MSHR hits (Count)
system.cpu.icache.ReadReq.mshrHits::total          155                       # number of ReadReq MSHR hits (Count)
system.cpu.icache.ReadReq.mshrMisses::cpu.inst          466                       # number of ReadReq MSHR misses (Count)
system.cpu.icache.ReadReq.mshrMisses::total          466                       # number of ReadReq MSHR misses (Count)
system.cpu.icache.ReadReq.mshrMissLatency::cpu.inst     37768999                       # number of ReadReq MSHR miss ticks (Tick)
system.cpu.icache.ReadReq.mshrMissLatency::total     37768999                       # number of ReadReq MSHR miss ticks (Tick)
system.cpu.icache.ReadReq.mshrMissRate::cpu.inst     0.000080                       # mshr miss rate for ReadReq accesses (Ratio)
system.cpu.icache.ReadReq.mshrMissRate::total     0.000080                       # mshr miss rate for ReadReq accesses (Ratio)
system.cpu.icache.ReadReq.avgMshrMissLatency::cpu.inst 81049.354077                       # average ReadReq mshr miss latency ((Tick/Count))
system.cpu.icache.ReadReq.avgMshrMissLatency::total 81049.354077                       # average ReadReq mshr miss latency ((Tick/Count))
system.cpu.icache.power_state.pwrStateResidencyTicks::UNDEFINED  42341163000                       # Cumulative time (in ticks) in various power states (Tick)
system.cpu.icache.prefetcher.demandMshrMisses          466                       # demands not covered by prefetchs (Count)
system.cpu.icache.prefetcher.pfIssued               0                       # number of hwpf issued (Count)
system.cpu.icache.prefetcher.pfUseful               0                       # number of useful prefetch (Count)
system.cpu.icache.prefetcher.pfUsefulButMiss            0                       # number of hit on prefetch but cache block is not in an usable state (Count)
system.cpu.icache.prefetcher.accuracy             nan                       # accuracy of the prefetcher (Count)
system.cpu.icache.prefetcher.coverage               0                       # coverage brought by this prefetcher (Count)
system.cpu.icache.prefetcher.pfHitInCache            0                       # number of prefetches hitting in cache (Count)
system.cpu.icache.prefetcher.pfHitInMSHR            0                       # number of prefetches hitting in a MSHR (Count)
system.cpu.icache.prefetcher.pfHitInWB              0                       # number of prefetches hit in the Write Buffer (Count)
system.cpu.icache.prefetcher.pfLate                 0                       # number of late prefetches (hitting in cache, MSHR or WB) (Count)
system.cpu.icache.prefetcher.pfIdentified            0                       # number of prefetch candidates identified (Count)
system.cpu.icache.prefetcher.pfBufferHit            0                       # number of redundant prefetches already in prefetch queue (Count)
system.cpu.icache.prefetcher.pfInCache              0                       # number of redundant prefetches already in cache/mshr dropped (Count)
system.cpu.icache.prefetcher.pfRemovedDemand            0                       # number of prefetches dropped due to a demand for the same address (Count)
system.cpu.icache.prefetcher.pfRemovedFull            0                       # number of prefetches dropped due to prefetch queue size (Count)
system.cpu.icache.prefetcher.pfSpanPage             0                       # number of prefetches that crossed the page (Count)
system.cpu.icache.prefetcher.pfUsefulSpanPage            0                       # number of prefetches that is useful and crossed the page (Count)
system.cpu.icache.prefetcher.power_state.pwrStateResidencyTicks::UNDEFINED  42341163000                       # Cumulative time (in ticks) in various power states (Tick)
system.cpu.icache.tags.tagsInUse           425.466545                       # Average ticks per tags in use ((Tick/Count))
system.cpu.icache.tags.totalRefs              5793360                       # Total number of references to valid blocks. (Count)
system.cpu.icache.tags.sampledRefs                466                       # Sample count of references to valid blocks. (Count)
system.cpu.icache.tags.avgRefs           12432.103004                       # Average number of references to valid blocks. ((Count/Count))
system.cpu.icache.tags.warmupTick               88000                       # The tick when the warmup percentage was hit. (Tick)
system.cpu.icache.tags.occupancies::cpu.inst   425.466545                       # Average occupied blocks per tick, per requestor ((Count/Tick))
system.cpu.icache.tags.avgOccs::cpu.inst     0.415495                       # Average percentage of cache occupancy ((Ratio/Tick))
system.cpu.icache.tags.avgOccs::total        0.415495                       # Average percentage of cache occupancy ((Ratio/Tick))
system.cpu.icache.tags.occupanciesTaskId::1024          453                       # Occupied blocks per task id (Count)
system.cpu.icache.tags.ageTaskId_1024::4          453                       # Occupied blocks per task id, per block age (Count)
[...]
system.mem_ctrl.dram.numWrites::writebacks       290681                       # Number of write requests responded to by this memory (Count)
system.mem_ctrl.dram.numWrites::total          290681                       # Number of write requests responded to by this memory (Count)
system.mem_ctrl.dram.bwRead::cpu.inst          701351                       # Total read bandwidth from this memory ((Byte/Second))
system.mem_ctrl.dram.bwRead::cpu.data       275464517                       # Total read bandwidth from this memory ((Byte/Second))
system.mem_ctrl.dram.bwRead::cpu.dcache.prefetcher    201916419                       # Total read bandwidth from this memory ((Byte/Second))
system.mem_ctrl.dram.bwRead::l2cache.prefetcher    110257151                       # Total read bandwidth from this memory ((Byte/Second))
system.mem_ctrl.dram.bwRead::total          588339437                       # Total read bandwidth from this memory ((Byte/Second))
system.mem_ctrl.dram.bwInstRead::cpu.inst       701351                       # Instruction read bandwidth from this memory ((Byte/Second))
system.mem_ctrl.dram.bwInstRead::total         701351                       # Instruction read bandwidth from this memory ((Byte/Second))
system.mem_ctrl.dram.bwWrite::writebacks    439373477                       # Write bandwidth from this memory ((Byte/Second))
system.mem_ctrl.dram.bwWrite::total         439373477                       # Write bandwidth from this memory ((Byte/Second))
system.mem_ctrl.dram.bwTotal::writebacks    439373477                       # Total bandwidth to/from this memory ((Byte/Second))
system.mem_ctrl.dram.bwTotal::cpu.inst         701351                       # Total bandwidth to/from this memory ((Byte/Second))
system.mem_ctrl.dram.bwTotal::cpu.data      275464517                       # Total bandwidth to/from this memory ((Byte/Second))
system.mem_ctrl.dram.bwTotal::cpu.dcache.prefetcher    201916419                       # Total bandwidth to/from this memory ((Byte/Second))
system.mem_ctrl.dram.bwTotal::l2cache.prefetcher    110257151                       # Total bandwidth to/from this memory ((Byte/Second))
system.mem_ctrl.dram.bwTotal::total        1027712914                       # Total bandwidth to/from this memory ((Byte/Second))
system.mem_ctrl.dram.readBursts                389234                       # Number of DRAM read bursts (Count)
system.mem_ctrl.dram.writeBursts               290664                       # Number of DRAM write bursts (Count)
system.mem_ctrl.dram.perBankRdBursts::0         24417                       # Per bank write bursts (Count)
system.mem_ctrl.dram.perBankRdBursts::1         24350                       # Per bank write bursts (Count)
system.mem_ctrl.dram.perBankRdBursts::2         24248                       # Per bank write bursts (Count)
system.mem_ctrl.dram.perBankRdBursts::3         24197                       # Per bank write bursts (Count)
system.mem_ctrl.dram.perBankRdBursts::4         24336                       # Per bank write bursts (Count)
system.mem_ctrl.dram.perBankRdBursts::5         24377                       # Per bank write bursts (Count)
system.mem_ctrl.dram.perBankRdBursts::6         24359                       # Per bank write bursts (Count)
system.mem_ctrl.dram.perBankRdBursts::7         24360                       # Per bank write bursts (Count)
system.mem_ctrl.dram.perBankRdBursts::8         24366                       # Per bank write bursts (Count)
system.mem_ctrl.dram.perBankRdBursts::9         24324                       # Per bank write bursts (Count)
system.mem_ctrl.dram.perBankRdBursts::10        24337                       # Per bank write bursts (Count)
system.mem_ctrl.dram.perBankRdBursts::11        24194                       # Per bank write bursts (Count)
system.mem_ctrl.dram.perBankRdBursts::12        24229                       # Per bank write bursts (Count)
system.mem_ctrl.dram.perBankRdBursts::13        24325                       # Per bank write bursts (Count)
system.mem_ctrl.dram.perBankRdBursts::14        24412                       # Per bank write bursts (Count)
system.mem_ctrl.dram.perBankRdBursts::15        24403                       # Per bank write bursts (Count)
system.mem_ctrl.dram.perBankWrBursts::0         18211                       # Per bank write bursts (Count)
system.mem_ctrl.dram.perBankWrBursts::1         18180                       # Per bank write bursts (Count)
system.mem_ctrl.dram.perBankWrBursts::2         18208                       # Per bank write bursts (Count)
system.mem_ctrl.dram.perBankWrBursts::3         18179                       # Per bank write bursts (Count)
system.mem_ctrl.dram.perBankWrBursts::4         18176                       # Per bank write bursts (Count)
system.mem_ctrl.dram.perBankWrBursts::5         18176                       # Per bank write bursts (Count)
system.mem_ctrl.dram.perBankWrBursts::6         18176                       # Per bank write bursts (Count)
system.mem_ctrl.dram.perBankWrBursts::7         18176                       # Per bank write bursts (Count)
system.mem_ctrl.dram.perBankWrBursts::8         18176                       # Per bank write bursts (Count)
system.mem_ctrl.dram.perBankWrBursts::9         18176                       # Per bank write bursts (Count)
system.mem_ctrl.dram.perBankWrBursts::10        18159                       # Per bank write bursts (Count)
system.mem_ctrl.dram.perBankWrBursts::11        18048                       # Per bank write bursts (Count)
system.mem_ctrl.dram.perBankWrBursts::12        18048                       # Per bank write bursts (Count)
system.mem_ctrl.dram.perBankWrBursts::13        18159                       # Per bank write bursts (Count)
system.mem_ctrl.dram.perBankWrBursts::14        18230                       # Per bank write bursts (Count)
system.mem_ctrl.dram.perBankWrBursts::15        18186                       # Per bank write bursts (Count)
system.mem_ctrl.dram.totQLat               6576519483                       # Total ticks spent queuing (Tick)
system.mem_ctrl.dram.totBusLat             1946170000                       # Total ticks spent in databus transfers (Tick)
system.mem_ctrl.dram.totMemAccLat         13874656983                       # Total ticks spent from burst creation until serviced by the DRAM (Tick)
system.mem_ctrl.dram.avgQLat                 16896.06                       # Average queueing delay per DRAM burst ((Tick/Count))
system.mem_ctrl.dram.avgBusLat                5000.00                       # Average bus latency per DRAM burst ((Tick/Count))
system.mem_ctrl.dram.avgMemAccLat            35646.06                       # Average memory access latency per DRAM burst ((Tick/Count))
system.mem_ctrl.dram.readRowHits               345148                       # Number of row buffer hits during reads (Count)
system.mem_ctrl.dram.writeRowHits              254603                       # Number of row buffer hits during writes (Count)
system.mem_ctrl.dram.readRowHitRate             88.67                       # Row buffer hit rate for reads (Ratio)
system.mem_ctrl.dram.writeRowHitRate            87.59                       # Row buffer hit rate for writes (Ratio)
system.mem_ctrl.dram.bytesPerActivate::samples        80145                       # Bytes accessed per row activation (Byte)
system.mem_ctrl.dram.bytesPerActivate::mean   542.928742                       # Bytes accessed per row activation (Byte)
system.mem_ctrl.dram.bytesPerActivate::gmean   480.134096                       # Bytes accessed per row activation (Byte)
system.mem_ctrl.dram.bytesPerActivate::stdev   243.315180                       # Bytes accessed per row activation (Byte)
system.mem_ctrl.dram.bytesPerActivate::0-127          962      1.20%      1.20% # Bytes accessed per row activation (Byte)
system.mem_ctrl.dram.bytesPerActivate::128-255         6666      8.32%      9.52% # Bytes accessed per row activation (Byte)
system.mem_ctrl.dram.bytesPerActivate::256-383         6405      7.99%     17.51% # Bytes accessed per row activation (Byte)
system.mem_ctrl.dram.bytesPerActivate::384-511         2515      3.14%     20.65% # Bytes accessed per row activation (Byte)
system.mem_ctrl.dram.bytesPerActivate::512-639        47986     59.87%     80.52% # Bytes accessed per row activation (Byte)
system.mem_ctrl.dram.bytesPerActivate::640-767         1400      1.75%     82.27% # Bytes accessed per row activation (Byte)
system.mem_ctrl.dram.bytesPerActivate::768-895         1190      1.48%     83.75% # Bytes accessed per row activation (Byte)
system.mem_ctrl.dram.bytesPerActivate::896-1023         1826      2.28%     86.03% # Bytes accessed per row activation (Byte)
system.mem_ctrl.dram.bytesPerActivate::1024-1151        11195     13.97%    100.00% # Bytes accessed per row activation (Byte)
system.mem_ctrl.dram.bytesPerActivate::total        80145                       # Bytes accessed per row activation (Byte)
system.mem_ctrl.dram.bytesRead               24910976                       # Total bytes read (Byte)
system.mem_ctrl.dram.bytesWritten            18602496                       # Total bytes written (Byte)
system.mem_ctrl.dram.avgRdBW               588.339437                       # Average DRAM read bandwidth in MiBytes/s ((Byte/Second))
system.mem_ctrl.dram.avgWrBW               439.347781                       # Average DRAM write bandwidth in MiBytes/s ((Byte/Second))
system.mem_ctrl.dram.peakBW                  12800.00                       # Theoretical peak bandwidth in MiByte/s ((Byte/Second))
system.mem_ctrl.dram.busUtil                     8.03                       # Data bus utilization in percentage (Ratio)
system.mem_ctrl.dram.busUtilRead                 4.60                       # Data bus utilization in percentage for reads (Ratio)
system.mem_ctrl.dram.busUtilWrite                3.43                       # Data bus utilization in percentage for writes (Ratio)
system.mem_ctrl.dram.pageHitRate                88.21                       # Row buffer hit rate, read and write combined (Ratio)
system.mem_ctrl.dram.power_state.pwrStateResidencyTicks::UNDEFINED  42341163000                       # Cumulative time (in ticks) in various power states (Tick)
system.mem_ctrl.dram.rank0.actEnergy        287899080                       # Energy for activate commands per rank (pJ) (Joule)
system.mem_ctrl.dram.rank0.preEnergy        153018195                       # Energy for precharge commands per rank (pJ) (Joule)
system.mem_ctrl.dram.rank0.readEnergy      1389758160                       # Energy for read commands per rank (pJ) (Joule)
system.mem_ctrl.dram.rank0.writeEnergy      759416040                       # Energy for write commands per rank (pJ) (Joule)
system.mem_ctrl.dram.rank0.refreshEnergy 3341797680.000000                       # Energy for refresh commands per rank (pJ) (Joule)
system.mem_ctrl.dram.rank0.actBackEnergy  16901791050                       # Energy for active background per rank (pJ) (Joule)
system.mem_ctrl.dram.rank0.preBackEnergy   2025919680                       # Energy for precharge background per rank (pJ) (Joule)
system.mem_ctrl.dram.rank0.actPowerDownEnergy            0                       # Energy for active power-down per rank (pJ) (Joule)
system.mem_ctrl.dram.rank0.prePowerDownEnergy            0                       # Energy for precharge power-down per rank (pJ) (Joule)
system.mem_ctrl.dram.rank0.selfRefreshEnergy            0                       # Energy for self refresh per rank (pJ) (Joule)
system.mem_ctrl.dram.rank0.totalEnergy    24859599885                       # Total energy per rank (pJ) (Joule)
system.mem_ctrl.dram.rank0.averagePower    587.126052                       # Core power per rank (mW) (Watt)
system.mem_ctrl.dram.rank0.totalIdleTime            0                       # Total Idle time Per DRAM Rank (Tick)
system.mem_ctrl.dram.rank0.pwrStateTime::IDLE   5038890405                       # Time in different power states (Tick)
system.mem_ctrl.dram.rank0.pwrStateTime::REF   1413620000                       # Time in different power states (Tick)
system.mem_ctrl.dram.rank0.pwrStateTime::SREF            0                       # Time in different power states (Tick)
system.mem_ctrl.dram.rank0.pwrStateTime::PRE_PDN            0                       # Time in different power states (Tick)
system.mem_ctrl.dram.rank0.pwrStateTime::ACT  35888652595                       # Time in different power states (Tick)
system.mem_ctrl.dram.rank0.pwrStateTime::ACT_PDN            0                       # Time in different power states (Tick)
system.mem_ctrl.dram.rank1.actEnergy        284350500                       # Energy for activate commands per rank (pJ) (Joule)
system.mem_ctrl.dram.rank1.preEnergy        151132080                       # Energy for precharge commands per rank (pJ) (Joule)
system.mem_ctrl.dram.rank1.readEnergy      1389372600                       # Energy for read commands per rank (pJ) (Joule)
system.mem_ctrl.dram.rank1.writeEnergy      757850040                       # Energy for write commands per rank (pJ) (Joule)
system.mem_ctrl.dram.rank1.refreshEnergy 3341797680.000000                       # Energy for refresh commands per rank (pJ) (Joule)
system.mem_ctrl.dram.rank1.actBackEnergy  16395015450                       # Energy for active background per rank (pJ) (Joule)
system.mem_ctrl.dram.rank1.preBackEnergy   2452678080                       # Energy for precharge background per rank (pJ) (Joule)
system.mem_ctrl.dram.rank1.actPowerDownEnergy            0                       # Energy for active power-down per rank (pJ) (Joule)
system.mem_ctrl.dram.rank1.prePowerDownEnergy            0                       # Energy for precharge power-down per rank (pJ) (Joule)
system.mem_ctrl.dram.rank1.selfRefreshEnergy            0                       # Energy for self refresh per rank (pJ) (Joule)
system.mem_ctrl.dram.rank1.totalEnergy    24772196430                       # Total energy per rank (pJ) (Joule)
system.mem_ctrl.dram.rank1.averagePower    585.061786                       # Core power per rank (mW) (Watt)
system.mem_ctrl.dram.rank1.totalIdleTime            0                       # Total Idle time Per DRAM Rank (Tick)
system.mem_ctrl.dram.rank1.pwrStateTime::IDLE   6150291150                       # Time in different power states (Tick)
system.mem_ctrl.dram.rank1.pwrStateTime::REF   1413620000                       # Time in different power states (Tick)
system.mem_ctrl.dram.rank1.pwrStateTime::SREF            0                       # Time in different power states (Tick)
system.mem_ctrl.dram.rank1.pwrStateTime::PRE_PDN            0                       # Time in different power states (Tick)
system.mem_ctrl.dram.rank1.pwrStateTime::ACT  34777251850                       # Time in different power states (Tick)
system.mem_ctrl.dram.rank1.pwrStateTime::ACT_PDN            0                       # Time in different power states (Tick)
system.mem_ctrl.power_state.pwrStateResidencyTicks::UNDEFINED  42341163000                       # Cumulative time (in ticks) in various power states (Tick)
system.membus.transDist::ReadResp              257282                       # Transaction distribution (Count)
system.membus.transDist::WritebackDirty        290681                       # Transaction distribution (Count)
system.membus.transDist::CleanEvict             94004                       # Transaction distribution (Count)
system.membus.transDist::ReadExReq             131952                       # Transaction distribution (Count)
system.membus.transDist::ReadExResp            131952                       # Transaction distribution (Count)
system.membus.transDist::ReadSharedReq         257282                       # Transaction distribution (Count)
system.membus.pktCount_system.l2cache.mem_side_port::system.mem_ctrl.port      1163153                       # Packet count per connected requestor and responder (Count)
system.membus.pktCount_system.l2cache.mem_side_port::total      1163153                       # Packet count per connected requestor and responder (Count)
system.membus.pktCount::total                 1163153                       # Packet count per connected requestor and responder (Count)
system.membus.pktSize_system.l2cache.mem_side_port::system.mem_ctrl.port     43514560                       # Cumulative packet size per connected requestor and responder (Byte)
system.membus.pktSize_system.l2cache.mem_side_port::total     43514560                       # Cumulative packet size per connected requestor and responder (Byte)
system.membus.pktSize::total                 43514560                       # Cumulative packet size per connected requestor and responder (Byte)
system.membus.snoops                                0                       # Total snoops (Count)
system.membus.snoopTraffic                          0                       # Total snoop traffic (Byte)
system.membus.snoopFanout::samples             389234                       # Request fanout histogram (Count)
system.membus.snoopFanout::mean                     0                       # Request fanout histogram (Count)
system.membus.snoopFanout::stdev                    0                       # Request fanout histogram (Count)
system.membus.snoopFanout::underflows               0      0.00%      0.00% # Request fanout histogram (Count)
system.membus.snoopFanout::0                   389234    100.00%    100.00% # Request fanout histogram (Count)
system.membus.snoopFanout::1                        0      0.00%    100.00% # Request fanout histogram (Count)
system.membus.snoopFanout::overflows                0      0.00%    100.00% # Request fanout histogram (Count)
system.membus.snoopFanout::min_value                0                       # Request fanout histogram (Count)
system.membus.snoopFanout::max_value                0                       # Request fanout histogram (Count)
system.membus.snoopFanout::total               389234                       # Request fanout histogram (Count)
system.membus.power_state.pwrStateResidencyTicks::UNDEFINED  42341163000                       # Cumulative time (in ticks) in various power states (Tick)
system.membus.reqLayer2.occupancy          1938492782                       # Layer occupancy (ticks) (Tick)
system.membus.reqLayer2.utilization               0.0                       # Layer utilization (Ratio)
system.membus.respLayer0.occupancy         2011697379                       # Layer occupancy (ticks) (Tick)
system.membus.respLayer0.utilization              0.0                       # Layer utilization (Ratio)
system.membus.snoop_filter.totRequests         773919                       # Total number of requests made to the snoop filter. (Count)
system.membus.snoop_filter.hitSingleRequests       384685                       # Number of requests hitting in the snoop filter with a single holder of the requested data. (Count)
system.membus.snoop_filter.hitMultiRequests            0                       # Number of requests hitting in the snoop filter with multiple (>1) holders of the requested data. (Count)
system.membus.snoop_filter.totSnoops                0                       # Total number of snoops made to the snoop filter. (Count)
system.membus.snoop_filter.hitSingleSnoops            0                       # Number of snoops hitting in the snoop filter with a single holder of the requested data. (Count)
system.membus.snoop_filter.hitMultiSnoops            0                       # Number of snoops hitting in the snoop filter with multiple (>1) holders of the requested data. (Count)
system.workload.inst.arm                            0                       # number of arm instructions executed (Count)
system.workload.inst.quiesce                        0                       # number of quiesce instructions executed (Count)

---------- End Simulation Statistics   ----------
