
---------- Begin Simulation Statistics ----------
simSeconds                                   0.044889                       # Number of seconds simulated (Second)
simTicks                                  44889153000                       # Number of ticks simulated (Tick)
finalTick                                 44889153000                       # Number of ticks from beginning of simulation (restored from checkpoints and never reset) (Tick)
simFreq                                  1000000000000                       # The number of ticks per simulated second ((Tick/Second))
hostSeconds                                    429.77                       # Real time elapsed on the host (Second)
hostTickRate                                104450144                       # The number of ticks simulated per host second (ticks/s) ((Tick/Second))
hostMemory                                    8529460                       # Number of bytes of host memory used (Byte)
simInsts                                     50000001                       # Number of instructions simulated (Count)
simOps                                       94757850                       # Number of ops (including micro ops) simulated (Count)
hostInstRate                                   116342                       # Simulator instruction rate (inst/s) ((Count/Second))
hostOpRate                                     220487                       # Simulator op (including micro ops) rate (op/s) ((Count/Second))
system.clk_domain.clock                          1000                       # Clock period in ticks (Tick)
system.clk_domain.voltage_domain.voltage            1                       # Voltage in Volts (Volt)
system.cpu.numCycles                         44889154                       # Number of cpu cycles simulated (Cycle)
system.cpu.numWorkItemsStarted                      0                       # Number of work items this cpu started (Count)
system.cpu.numWorkItemsCompleted                    0                       # Number of work items this cpu completed (Count)
system.cpu.instsAdded                       133610063                       # Number of instructions added to the IQ (excludes non-spec) (Count)
system.cpu.nonSpecInstsAdded                    79406                       # Number of non-speculative instructions added to the IQ (Count)
system.cpu.instsIssued                      122493225                       # Number of instructions issued (Count)
system.cpu.squashedInstsIssued                 263430                       # Number of squashed instructions issued (Count)
system.cpu.squashedInstsExamined             38931611                       # Number of squashed instructions iterated over during squash; mainly for profiling (Count)
system.cpu.squashedOperandsExamined          59747465                       # Number of squashed operands that are examined and possibly removed from graph (Count)
system.cpu.squashedNonSpecRemoved               79370                       # Number of squashed non-spec instructions that were removed (Count)
system.cpu.numIssuedDist::samples            44863174                       # Number of insts issued each cycle (Count)
system.cpu.numIssuedDist::mean               2.730374                       # Number of insts issued each cycle (Count)
system.cpu.numIssuedDist::stdev              2.594530                       # Number of insts issued each cycle (Count)
system.cpu.numIssuedDist::underflows                0      0.00%      0.00% # Number of insts issued each cycle (Count)
system.cpu.numIssuedDist::0                  15869960     35.37%     35.37% # Number of insts issued each cycle (Count)
system.cpu.numIssuedDist::1                   3136717      6.99%     42.37% # Number of insts issued each cycle (Count)
system.cpu.numIssuedDist::2                   3980714      8.87%     51.24% # Number of insts issued each cycle (Count)
system.cpu.numIssuedDist::3                   4460041      9.94%     61.18% # Number of insts issued each cycle (Count)
system.cpu.numIssuedDist::4                   3529601      7.87%     69.05% # Number of insts issued each cycle (Count)
system.cpu.numIssuedDist::5                   5123960     11.42%     80.47% # Number of insts issued each cycle (Count)
system.cpu.numIssuedDist::6                   4605470     10.27%     90.73% # Number of insts issued each cycle (Count)
system.cpu.numIssuedDist::7                   2609755      5.82%     96.55% # Number of insts issued each cycle (Count)
system.cpu.numIssuedDist::8                   1546956      3.45%    100.00% # Number of insts issued each cycle (Count)
system.cpu.numIssuedDist::overflows                 0      0.00%    100.00% # Number of insts issued each cycle (Count)
system.cpu.numIssuedDist::min_value                 0                       # Number of insts issued each cycle (Count)
system.cpu.numIssuedDist::max_value                 8                       # Number of insts issued each cycle (Count)
system.cpu.numIssuedDist::total              44863174                       # Number of insts issued each cycle (Count)
system.cpu.statFuBusy::No_OpClass                   0      0.00%      0.00% # attempts to use FU when none available (Count)
system.cpu.statFuBusy::IntAlu                 2005328     95.47%     95.47% # attempts to use FU when none available (Count)
system.cpu.statFuBusy::IntMult                      0      0.00%     95.47% # attempts to use FU when none available (Count)
system.cpu.statFuBusy::IntDiv                       0      0.00%     95.47% # attempts to use FU when none available (Count)
system.cpu.statFuBusy::FloatAdd                     0      0.00%     95.47% # attempts to use FU when none available (Count)
system.cpu.statFuBusy::FloatCmp                     0      0.00%     95.47% # attempts to use FU when none available (Count)
system.cpu.statFuBusy::FloatCvt                     0      0.00%     95.47% # attempts to use FU when none available (Count)
system.cpu.statFuBusy::FloatMult                    0      0.00%     95.47% # attempts to use FU when none available (Count)
system.cpu.statFuBusy::FloatMultAcc                 0      0.00%     95.47% # attempts to use FU when none available (Count)
system.cpu.statFuBusy::FloatDiv                     0      0.00%     95.47% # attempts to use FU when none available (Count)
system.cpu.statFuBusy::FloatMisc                    0      0.00%     95.47% # attempts to use FU when none available (Count)
system.cpu.statFuBusy::FloatSqrt                    0      0.00%     95.47% # attempts to use FU when none available (Count)
system.cpu.statFuBusy::SimdAdd                      0      0.00%     95.47% # attempts to use FU when none available (Count)
system.cpu.statFuBusy::SimdAddAcc                   0      0.00%     95.47% # attempts to use FU when none available (Count)
system.cpu.statFuBusy::SimdAlu                     14      0.00%     95.47% # attempts to use FU when none available (Count)
system.cpu.statFuBusy::SimdCmp                      0      0.00%     95.47% # attempts to use FU when none available (Count)
system.cpu.statFuBusy::SimdCvt                      8      0.00%     95.47% # attempts to use FU when none available (Count)
system.cpu.statFuBusy::SimdMisc                     8      0.00%     95.47% # attempts to use FU when none available (Count)
system.cpu.statFuBusy::SimdMult                     0      0.00%     95.47% # attempts to use FU when none available (Count)
system.cpu.statFuBusy::SimdMultAcc                  0      0.00%     95.47% # attempts to use FU when none available (Count)
system.cpu.statFuBusy::SimdShift                    0      0.00%     95.47% # attempts to use FU when none available (Count)
system.cpu.statFuBusy::SimdShiftAcc                 0      0.00%     95.47% # attempts to use FU when none available (Count)
system.cpu.statFuBusy::SimdDiv                      0      0.00%     95.47% # attempts to use FU when none available (Count)
system.cpu.statFuBusy::SimdSqrt                     0      0.00%     95.47% # attempts to use FU when none available (Count)
system.cpu.statFuBusy::SimdFloatAdd                 0      0.00%     95.47% # attempts to use FU when none available (Count)
system.cpu.statFuBusy::SimdFloatAlu                 0      0.00%     95.47% # attempts to use FU when none available (Count)
system.cpu.statFuBusy::SimdFloatCmp                 0      0.00%     95.47% # attempts to use FU when none available (Count)
system.cpu.statFuBusy::SimdFloatCvt                 0      0.00%     95.47% # attempts to use FU when none available (Count)
system.cpu.statFuBusy::SimdFloatDiv                 0      0.00%     95.47% # attempts to use FU when none available (Count)
system.cpu.statFuBusy::SimdFloatMisc                0      0.00%     95.47% # attempts to use FU when none available (Count)
system.cpu.statFuBusy::SimdFloatMult                0      0.00%     95.47% # attempts to use FU when none available (Count)
system.cpu.statFuBusy::SimdFloatMultAcc             0      0.00%     95.47% # attempts to use FU when none available (Count)
system.cpu.statFuBusy::SimdFloatSqrt                0      0.00%     95.47% # attempts to use FU when none available (Count)
system.cpu.statFuBusy::SimdReduceAdd                0      0.00%     95.47% # attempts to use FU when none available (Count)
system.cpu.statFuBusy::SimdReduceAlu                0      0.00%     95.47% # attempts to use FU when none available (Count)
system.cpu.statFuBusy::SimdReduceCmp                0      0.00%     95.47% # attempts to use FU when none available (Count)
system.cpu.statFuBusy::SimdFloatReduceAdd            0      0.00%     95.47% # attempts to use FU when none available (Count)
system.cpu.statFuBusy::SimdFloatReduceCmp            0      0.00%     95.47% # attempts to use FU when none available (Count)
system.cpu.statFuBusy::SimdAes                      0      0.00%     95.47% # attempts to use FU when none available (Count)
system.cpu.statFuBusy::SimdAesMix                   0      0.00%     95.47% # attempts to use FU when none available (Count)
system.cpu.statFuBusy::SimdSha1Hash                 0      0.00%     95.47% # attempts to use FU when none available (Count)
system.cpu.statFuBusy::SimdSha1Hash2                0      0.00%     95.47% # attempts to use FU when none available (Count)
system.cpu.statFuBusy::SimdSha256Hash               0      0.00%     95.47% # attempts to use FU when none available (Count)
system.cpu.statFuBusy::SimdSha256Hash2              0      0.00%     95.47% # attempts to use FU when none available (Count)
system.cpu.statFuBusy::SimdShaSigma2                0      0.00%     95.47% # attempts to use FU when none available (Count)
system.cpu.statFuBusy::SimdShaSigma3                0      0.00%     95.47% # attempts to use FU when none available (Count)
system.cpu.statFuBusy::SimdPredAlu                  0      0.00%     95.47% # attempts to use FU when none available (Count)
system.cpu.statFuBusy::MemRead                  69941      3.33%     98.80% # attempts to use FU when none available (Count)
system.cpu.statFuBusy::MemWrite                  5729      0.27%     99.07% # attempts to use FU when none available (Count)
system.cpu.statFuBusy::FloatMemRead                 5      0.00%     99.07% # attempts to use FU when none available (Count)
system.cpu.statFuBusy::FloatMemWrite            19532      0.93%    100.00% # attempts to use FU when none available (Count)
system.cpu.statFuBusy::IprAccess                    0      0.00%    100.00% # attempts to use FU when none available (Count)
system.cpu.statFuBusy::InstPrefetch                 0      0.00%    100.00% # attempts to use FU when none available (Count)
system.cpu.statIssuedInstType_0::No_OpClass       534791      0.44%      0.44% # Number of instructions issued per FU type, per thread (Count)
system.cpu.statIssuedInstType_0::IntAlu      98492403     80.41%     80.84% # Number of instructions issued per FU type, per thread (Count)
system.cpu.statIssuedInstType_0::IntMult       300221      0.25%     81.09% # Number of instructions issued per FU type, per thread (Count)
system.cpu.statIssuedInstType_0::IntDiv            29      0.00%     81.09% # Number of instructions issued per FU type, per thread (Count)
system.cpu.statIssuedInstType_0::FloatAdd        50808      0.04%     81.13% # Number of instructions issued per FU type, per thread (Count)
system.cpu.statIssuedInstType_0::FloatCmp            0      0.00%     81.13% # Number of instructions issued per FU type, per thread (Count)
system.cpu.statIssuedInstType_0::FloatCvt            0      0.00%     81.13% # Number of instructions issued per FU type, per thread (Count)
system.cpu.statIssuedInstType_0::FloatMult            0      0.00%     81.13% # Number of instructions issued per FU type, per thread (Count)
system.cpu.statIssuedInstType_0::FloatMultAcc            0      0.00%     81.13% # Number of instructions issued per FU type, per thread (Count)
system.cpu.statIssuedInstType_0::FloatDiv            0      0.00%     81.13% # Number of instructions issued per FU type, per thread (Count)
system.cpu.statIssuedInstType_0::FloatMisc            0      0.00%     81.13% # Number of instructions issued per FU type, per thread (Count)
system.cpu.statIssuedInstType_0::FloatSqrt            0      0.00%     81.13% # Number of instructions issued per FU type, per thread (Count)
system.cpu.statIssuedInstType_0::SimdAdd            0      0.00%     81.13% # Number of instructions issued per FU type, per thread (Count)
system.cpu.statIssuedInstType_0::SimdAddAcc            0      0.00%     81.13% # Number of instructions issued per FU type, per thread (Count)
system.cpu.statIssuedInstType_0::SimdAlu          122      0.00%     81.13% # Number of instructions issued per FU type, per thread (Count)
system.cpu.statIssuedInstType_0::SimdCmp            0      0.00%     81.13% # Number of instructions issued per FU type, per thread (Count)
system.cpu.statIssuedInstType_0::SimdCvt       255116      0.21%     81.34% # Number of instructions issued per FU type, per thread (Count)
system.cpu.statIssuedInstType_0::SimdMisc       574803      0.47%     81.81% # Number of instructions issued per FU type, per thread (Count)
system.cpu.statIssuedInstType_0::SimdMult            0      0.00%     81.81% # Number of instructions issued per FU type, per thread (Count)
system.cpu.statIssuedInstType_0::SimdMultAcc            0      0.00%     81.81% # Number of instructions issued per FU type, per thread (Count)
system.cpu.statIssuedInstType_0::SimdShift            0      0.00%     81.81% # Number of instructions issued per FU type, per thread (Count)
system.cpu.statIssuedInstType_0::SimdShiftAcc            0      0.00%     81.81% # Number of instructions issued per FU type, per thread (Count)
system.cpu.statIssuedInstType_0::SimdDiv            0      0.00%     81.81% # Number of instructions issued per FU type, per thread (Count)
system.cpu.statIssuedInstType_0::SimdSqrt            0      0.00%     81.81% # Number of instructions issued per FU type, per thread (Count)
system.cpu.statIssuedInstType_0::SimdFloatAdd            0      0.00%     81.81% # Number of instructions issued per FU type, per thread (Count)
system.cpu.statIssuedInstType_0::SimdFloatAlu            0      0.00%     81.81% # Number of instructions issued per FU type, per thread (Count)
system.cpu.statIssuedInstType_0::SimdFloatCmp            0      0.00%     81.81% # Number of instructions issued per FU type, per thread (Count)
system.cpu.statIssuedInstType_0::SimdFloatCvt            0      0.00%     81.81% # Number of instructions issued per FU type, per thread (Count)
system.cpu.statIssuedInstType_0::SimdFloatDiv            0      0.00%     81.81% # Number of instructions issued per FU type, per thread (Count)
system.cpu.statIssuedInstType_0::SimdFloatMisc            0      0.00%     81.81% # Number of instructions issued per FU type, per thread (Count)
system.cpu.statIssuedInstType_0::SimdFloatMult            0      0.00%     81.81% # Number of instructions issued per FU type, per thread (Count)
system.cpu.statIssuedInstType_0::SimdFloatMultAcc            0      0.00%     81.81% # Number of instructions issued per FU type, per thread (Count)
system.cpu.statIssuedInstType_0::SimdFloatSqrt            0      0.00%     81.81% # Number of instructions issued per FU type, per thread (Count)
system.cpu.statIssuedInstType_0::SimdReduceAdd            0      0.00%     81.81% # Number of instructions issued per FU type, per thread (Count)
system.cpu.statIssuedInstType_0::SimdReduceAlu            0      0.00%     81.81% # Number of instructions issued per FU type, per thread (Count)
system.cpu.statIssuedInstType_0::SimdReduceCmp            0      0.00%     81.81% # Number of instructions issued per FU type, per thread (Count)
system.cpu.statIssuedInstType_0::SimdFloatReduceAdd            0      0.00%     81.81% # Number of instructions issued per FU type, per thread (Count)
system.cpu.statIssuedInstType_0::SimdFloatReduceCmp            0      0.00%     81.81% # Number of instructions issued per FU type, per thread (Count)
system.cpu.statIssuedInstType_0::SimdAes            0      0.00%     81.81% # Number of instructions issued per FU type, per thread (Count)
system.cpu.statIssuedInstType_0::SimdAesMix            0      0.00%     81.81% # Number of instructions issued per FU type, per thread (Count)
system.cpu.statIssuedInstType_0::SimdSha1Hash            0      0.00%     81.81% # Number of instructions issued per FU type, per thread (Count)
system.cpu.statIssuedInstType_0::SimdSha1Hash2            0      0.00%     81.81% # Number of instructions issued per FU type, per thread (Count)
system.cpu.statIssuedInstType_0::SimdSha256Hash            0      0.00%     81.81% # Number of instructions issued per FU type, per thread (Count)
system.cpu.statIssuedInstType_0::SimdSha256Hash2            0      0.00%     81.81% # Number of instructions issued per FU type, per thread (Count)
system.cpu.statIssuedInstType_0::SimdShaSigma2            0      0.00%     81.81% # Number of instructions issued per FU type, per thread (Count)
system.cpu.statIssuedInstType_0::SimdShaSigma3            0      0.00%     81.81% # Number of instructions issued per FU type, per thread (Count)
system.cpu.statIssuedInstType_0::SimdPredAlu            0      0.00%     81.81% # Number of instructions issued per FU type, per thread (Count)
system.cpu.statIssuedInstType_0::MemRead     13159062     10.74%     92.55% # Number of instructions issued per FU type, per thread (Count)
system.cpu.statIssuedInstType_0::MemWrite      8671907      7.08%     99.63% # Number of instructions issued per FU type, per thread (Count)
system.cpu.statIssuedInstType_0::FloatMemRead       395124      0.32%     99.95% # Number of instructions issued per FU type, per thread (Count)
system.cpu.statIssuedInstType_0::FloatMemWrite        58839      0.05%    100.00% # Number of instructions issued per FU type, per thread (Count)
system.cpu.statIssuedInstType_0::IprAccess            0      0.00%    100.00% # Number of instructions issued per FU type, per thread (Count)
system.cpu.statIssuedInstType_0::InstPrefetch            0      0.00%    100.00% # Number of instructions issued per FU type, per thread (Count)
system.cpu.statIssuedInstType_0::total      122493225                       # Number of instructions issued per FU type, per thread (Count)
system.cpu.issueRate                         2.728793                       # Inst issue rate ((Count/Cycle))
system.cpu.fuBusy                             2100565                       # FU busy when requested (Count)
system.cpu.fuBusyRate                        0.017148                       # FU busy rate (busy events/executed inst) ((Count/Count))
system.cpu.intInstQueueReads                289413076                       # Number of integer instruction queue reads (Count)
system.cpu.intInstQueueWrites               170094386                       # Number of integer instruction queue writes (Count)
system.cpu.intInstQueueWakeupAccesses       117108939                       # Number of integer instruction queue wakeup accesses (Count)
system.cpu.fpInstQueueReads                   2800541                       # Number of floating instruction queue reads (Count)
system.cpu.fpInstQueueWrites                  2527481                       # Number of floating instruction queue writes (Count)
system.cpu.fpInstQueueWakeupAccesses          1226097                       # Number of floating instruction queue wakeup accesses (Count)
system.cpu.vecInstQueueReads                        0                       # Number of vector instruction queue reads (Count)
system.cpu.vecInstQueueWrites                       0                       # Number of vector instruction queue writes (Count)
system.cpu.vecInstQueueWakeupAccesses               0                       # Number of vector instruction queue wakeup accesses (Count)
system.cpu.intAluAccesses                   122653813                       # Number of integer alu accesses (Count)
system.cpu.fpAluAccesses                      1405186                       # Number of floating point alu accesses (Count)
system.cpu.vecAluAccesses                           0                       # Number of vector alu accesses (Count)
system.cpu.numInsts                         119526652                       # Number of executed instructions (Count)
system.cpu.numLoadInsts                      13185557                       # Number of load instructions executed (Count)
system.cpu.numSquashedInsts                   2966571                       # Number of squashed instructions skipped in execute (Count)
system.cpu.numSwp                                   0                       # Number of swp insts executed (Count)
system.cpu.numNop                                   0                       # Number of nop insts executed (Count)
system.cpu.numRefs                           21533785                       # Number of memory reference insts executed (Count)
system.cpu.numBranches                       13845425                       # Number of branches executed (Count)
system.cpu.numStoreInsts                      8348228                       # Number of stores executed (Count)
system.cpu.numRate                           2.662707                       # Inst execution rate ((Count/Cycle))
system.cpu.timesIdled                             426                       # Number of times that the entire CPU went into an idle state and unscheduled itself (Count)
system.cpu.idleCycles                           25980                       # Total number of cycles that the CPU has spent unscheduled due to idling (Cycle)
system.cpu.committedInsts                    50000001                       # Number of Instructions Simulated (Count)
system.cpu.committedOps                      94757850                       # Number of Ops (including micro ops) Simulated (Count)
system.cpu.cpi                               0.897783                       # CPI: Cycles Per Instruction ((Cycle/Count))
system.cpu.totalCpi                          0.897783                       # CPI: Total CPI of All Threads ((Cycle/Count))
system.cpu.ipc                               1.113855                       # IPC: Instructions Per Cycle ((Count/Cycle))
system.cpu.totalIpc                          1.113855                       # IPC: Total IPC of All Threads ((Count/Cycle))
system.cpu.intRegfileReads                  143857605                       # Number of integer regfile reads (Count)
system.cpu.intRegfileWrites                  83228138                       # Number of integer regfile writes (Count)
system.cpu.fpRegfileReads                     1887752                       # Number of floating regfile reads (Count)
system.cpu.fpRegfileWrites                     999591                       # Number of floating regfile writes (Count)
system.cpu.ccRegfileReads                    69481479                       # number of cc regfile reads (Count)
system.cpu.ccRegfileWrites                   36952217                       # number of cc regfile writes (Count)
system.cpu.miscRegfileReads                  50207361                       # number of misc regfile reads (Count)
system.cpu.MemDepUnit__0.insertedLoads       14569419                       # Number of loads inserted to the mem dependence unit. (Count)
system.cpu.MemDepUnit__0.insertedStores       9552366                       # Number of stores inserted to the mem dependence unit. (Count)
system.cpu.MemDepUnit__0.conflictingLoads       851073                       # Number of conflicting loads. (Count)
system.cpu.MemDepUnit__0.conflictingStores       275205                       # Number of conflicting stores. (Count)
system.cpu.MemDepUnit__1.insertedLoads              0                       # Number of loads inserted to the mem dependence unit. (Count)
system.cpu.MemDepUnit__1.insertedStores             0                       # Number of stores inserted to the mem dependence unit. (Count)
system.cpu.MemDepUnit__1.conflictingLoads            0                       # Number of conflicting loads. (Count)
system.cpu.MemDepUnit__1.conflictingStores            0                       # Number of conflicting stores. (Count)
system.cpu.MemDepUnit__2.insertedLoads              0                       # Number of loads inserted to the mem dependence unit. (Count)
system.cpu.MemDepUnit__2.insertedStores             0                       # Number of stores inserted to the mem dependence unit. (Count)
system.cpu.MemDepUnit__2.conflictingLoads            0                       # Number of conflicting loads. (Count)
system.cpu.MemDepUnit__2.conflictingStores            0                       # Number of conflicting stores. (Count)
system.cpu.MemDepUnit__3.insertedLoads              0                       # Number of loads inserted to the mem dependence unit. (Count)
system.cpu.MemDepUnit__3.insertedStores             0                       # Number of stores inserted to the mem dependence unit. (Count)
system.cpu.MemDepUnit__3.conflictingLoads            0                       # Number of conflicting loads. (Count)
system.cpu.MemDepUnit__3.conflictingStores            0                       # Number of conflicting stores. (Count)
system.cpu.branchPred.lookups                20191281                       # Number of BP lookups (Count)
system.cpu.branchPred.condPredicted          15829313                       # Number of conditional branches predicted (Count)
system.cpu.branchPred.condIncorrect           1919531                       # Number of conditional branches incorrect (Count)
system.cpu.branchPred.BTBLookups              7423749                       # Number of BTB lookups (Count)
system.cpu.branchPred.BTBHits                 4555660                       # Number of BTB hits (Count)
system.cpu.branchPred.BTBHitRatio            0.613660                       # BTB Hit Ratio (Ratio)
system.cpu.branchPred.RASUsed                  923005                       # Number of times the RAS was used to get a target. (Count)
system.cpu.branchPred.RASIncorrect                  3                       # Number of incorrect RAS predictions. (Count)
system.cpu.branchPred.indirectLookups          401589                       # Number of indirect predictor lookups. (Count)
system.cpu.branchPred.indirectHits             185076                       # Number of indirect target hits. (Count)
system.cpu.branchPred.indirectMisses           216513                       # Number of indirect misses. (Count)
system.cpu.branchPred.indirectMispredicted           81                       # Number of mispredicted indirect branches. (Count)
system.cpu.commit.commitSquashedInsts        38915765                       # The number of squashed insts skipped by commit (Count)
system.cpu.commit.commitNonSpecStalls              36                       # The number of times commit has been forced to stall to communicate backwards (Count)
system.cpu.commit.branchMispredicts           1414426                       # The number of times a branch was mispredicted (Count)
system.cpu.commit.numCommittedDist::samples     39156942                       # Number of insts commited each cycle (Count)
system.cpu.commit.numCommittedDist::mean     2.419950                       # Number of insts commited each cycle (Count)
system.cpu.commit.numCommittedDist::stdev     2.796612                       # Number of insts commited each cycle (Count)
system.cpu.commit.numCommittedDist::underflows            0      0.00%      0.00% # Number of insts commited each cycle (Count)
system.cpu.commit.numCommittedDist::0        14798120     37.79%     37.79% # Number of insts commited each cycle (Count)
system.cpu.commit.numCommittedDist::1         5754844     14.70%     52.49% # Number of insts commited each cycle (Count)
system.cpu.commit.numCommittedDist::2         3902632      9.97%     62.46% # Number of insts commited each cycle (Count)
system.cpu.commit.numCommittedDist::3         4293492     10.96%     73.42% # Number of insts commited each cycle (Count)
system.cpu.commit.numCommittedDist::4         1985017      5.07%     78.49% # Number of insts commited each cycle (Count)
system.cpu.commit.numCommittedDist::5         1216227      3.11%     81.60% # Number of insts commited each cycle (Count)
system.cpu.commit.numCommittedDist::6         1256859      3.21%     84.81% # Number of insts commited each cycle (Count)
system.cpu.commit.numCommittedDist::7          843099      2.15%     86.96% # Number of insts commited each cycle (Count)
system.cpu.commit.numCommittedDist::8         5106652     13.04%    100.00% # Number of insts commited each cycle (Count)
system.cpu.commit.numCommittedDist::overflows            0      0.00%    100.00% # Number of insts commited each cycle (Count)
system.cpu.commit.numCommittedDist::min_value            0                       # Number of insts commited each cycle (Count)
system.cpu.commit.numCommittedDist::max_value            8                       # Number of insts commited each cycle (Count)
system.cpu.commit.numCommittedDist::total     39156942                       # Number of insts commited each cycle (Count)
system.cpu.commit.instsCommitted             50000001                       # Number of instructions committed (Count)
system.cpu.commit.opsCommitted               94757850                       # Number of ops (including micro ops) committed (Count)
system.cpu.commit.memRefs                    17616402                       # Number of memory references committed (Count)
system.cpu.commit.loads                      10653362                       # Number of loads committed (Count)
system.cpu.commit.amos                              0                       # Number of atomic instructions committed (Count)
system.cpu.commit.membars                          24                       # Number of memory barriers committed (Count)
system.cpu.commit.branches                   11816953                       # Number of branches committed (Count)
system.cpu.commit.vectorInstructions                0                       # Number of committed Vector instructions. (Count)
system.cpu.commit.floating                     797407                       # Number of committed floating point instructions. (Count)
system.cpu.commit.integer                    93840958                       # Number of committed integer instructions. (Count)
system.cpu.commit.functionCalls                489611                       # Number of function calls committed. (Count)
system.cpu.commit.committedInstType_0::No_OpClass       206366      0.22%      0.22% # Class of committed instruction (Count)
system.cpu.commit.committedInstType_0::IntAlu     76071906     80.28%     80.50% # Class of committed instruction (Count)
system.cpu.commit.committedInstType_0::IntMult       230150      0.24%     80.74% # Class of committed instruction (Count)
system.cpu.commit.committedInstType_0::IntDiv           28      0.00%     80.74% # Class of committed instruction (Count)
system.cpu.commit.committedInstType_0::FloatAdd        50759      0.05%     80.79% # Class of committed instruction (Count)
system.cpu.commit.committedInstType_0::FloatCmp            0      0.00%     80.79% # Class of committed instruction (Count)
system.cpu.commit.committedInstType_0::FloatCvt            0      0.00%     80.79% # Class of committed instruction (Count)
system.cpu.commit.committedInstType_0::FloatMult            0      0.00%     80.79% # Class of committed instruction (Count)
system.cpu.commit.committedInstType_0::FloatMultAcc            0      0.00%     80.79% # Class of committed instruction (Count)
system.cpu.commit.committedInstType_0::FloatDiv            0      0.00%     80.79% # Class of committed instruction (Count)
system.cpu.commit.committedInstType_0::FloatMisc            0      0.00%     80.79% # Class of committed instruction (Count)
system.cpu.commit.committedInstType_0::FloatSqrt            0      0.00%     80.79% # Class of committed instruction (Count)
system.cpu.commit.committedInstType_0::SimdAdd            0      0.00%     80.79% # Class of committed instruction (Count)
system.cpu.commit.committedInstType_0::SimdAddAcc            0      0.00%     80.79% # Class of committed instruction (Count)
system.cpu.commit.committedInstType_0::SimdAlu           98      0.00%     80.79% # Class of committed instruction (Count)
system.cpu.commit.committedInstType_0::SimdCmp            0      0.00%     80.79% # Class of committed instruction (Count)
system.cpu.commit.committedInstType_0::SimdCvt       113412      0.12%     80.91% # Class of committed instruction (Count)
system.cpu.commit.committedInstType_0::SimdMisc       468729      0.49%     81.41% # Class of committed instruction (Count)
system.cpu.commit.committedInstType_0::SimdMult            0      0.00%     81.41% # Class of committed instruction (Count)
system.cpu.commit.committedInstType_0::SimdMultAcc            0      0.00%     81.41% # Class of committed instruction (Count)
system.cpu.commit.committedInstType_0::SimdShift            0      0.00%     81.41% # Class of committed instruction (Count)
system.cpu.commit.committedInstType_0::SimdShiftAcc            0      0.00%     81.41% # Class of committed instruction (Count)
system.cpu.commit.committedInstType_0::SimdDiv            0      0.00%     81.41% # Class of committed instruction (Count)
system.cpu.commit.committedInstType_0::SimdSqrt            0      0.00%     81.41% # Class of committed instruction (Count)
system.cpu.commit.committedInstType_0::SimdFloatAdd            0      0.00%     81.41% # Class of committed instruction (Count)
system.cpu.commit.committedInstType_0::SimdFloatAlu            0      0.00%     81.41% # Class of committed instruction (Count)
system.cpu.commit.committedInstType_0::SimdFloatCmp            0      0.00%     81.41% # Class of committed instruction (Count)
system.cpu.commit.committedInstType_0::SimdFloatCvt            0      0.00%     81.41% # Class of committed instruction (Count)
system.cpu.commit.committedInstType_0::SimdFloatDiv            0      0.00%     81.41% # Class of committed instruction (Count)
system.cpu.commit.committedInstType_0::SimdFloatMisc            0      0.00%     81.41% # Class of committed instruction (Count)
system.cpu.commit.committedInstType_0::SimdFloatMult            0      0.00%     81.41% # Class of committed instruction (Count)
system.cpu.commit.committedInstType_0::SimdFloatMultAcc            0      0.00%     81.41% # Class of committed instruction (Count)
system.cpu.commit.committedInstType_0::SimdFloatSqrt            0      0.00%     81.41% # Class of committed instruction (Count)
system.cpu.commit.committedInstType_0::SimdReduceAdd            0      0.00%     81.41% # Class of committed instruction (Count)
system.cpu.commit.committedInstType_0::SimdReduceAlu            0      0.00%     81.41% # Class of committed instruction (Count)
system.cpu.commit.committedInstType_0::SimdReduceCmp            0      0.00%     81.41% # Class of committed instruction (Count)
system.cpu.commit.committedInstType_0::SimdFloatReduceAdd            0      0.00%     81.41% # Class of committed instruction (Count)
system.cpu.commit.committedInstType_0::SimdFloatReduceCmp            0      0.00%     81.41% # Class of committed instruction (Count)
system.cpu.commit.committedInstType_0::SimdAes            0      0.00%     81.41% # Class of committed instruction (Count)
system.cpu.commit.committedInstType_0::SimdAesMix            0      0.00%     81.41% # Class of committed instruction (Count)
system.cpu.commit.committedInstType_0::SimdSha1Hash            0      0.00%     81.41% # Class of committed instruction (Count)
system.cpu.commit.committedInstType_0::SimdSha1Hash2            0      0.00%     81.41% # Class of committed instruction (Count)
system.cpu.commit.committedInstType_0::SimdSha256Hash            0      0.00%     81.41% # Class of committed instruction (Count)
system.cpu.commit.committedInstType_0::SimdSha256Hash2            0      0.00%     81.41% # Class of committed instruction (Count)
system.cpu.commit.committedInstType_0::SimdShaSigma2            0      0.00%     81.41% # Class of committed instruction (Count)
system.cpu.commit.committedInstType_0::SimdShaSigma3            0      0.00%     81.41% # Class of committed instruction (Count)
system.cpu.commit.committedInstType_0::SimdPredAlu            0      0.00%     81.41% # Class of committed instruction (Count)
system.cpu.commit.committedInstType_0::MemRead     10539958     11.12%     92.53% # Class of committed instruction (Count)
system.cpu.commit.committedInstType_0::MemWrite      6962800      7.35%     99.88% # Class of committed instruction (Count)
system.cpu.commit.committedInstType_0::FloatMemRead       113404      0.12%    100.00% # Class of committed instruction (Count)
system.cpu.commit.committedInstType_0::FloatMemWrite          240      0.00%    100.00% # Class of committed instruction (Count)
system.cpu.commit.committedInstType_0::IprAccess            0      0.00%    100.00% # Class of committed instruction (Count)
system.cpu.commit.committedInstType_0::InstPrefetch            0      0.00%    100.00% # Class of committed instruction (Count)
system.cpu.commit.committedInstType_0::total     94757850                       # Class of committed instruction (Count)
system.cpu.commit.commitEligibleSamples       5106652                       # number cycles where commit BW limit reached (Cycle)
system.cpu.dcache.demandHits::cpu.data       18094494                       # number of demand (read+write) hits (Count)
system.cpu.dcache.demandHits::total          18094494                       # number of demand (read+write) hits (Count)
system.cpu.dcache.overallHits::cpu.data      18094494                       # number of overall hits (Count)
system.cpu.dcache.overallHits::total         18094494                       # number of overall hits (Count)
system.cpu.dcache.demandMisses::cpu.data        84260                       # number of demand (read+write) misses (Count)
system.cpu.dcache.demandMisses::total           84260                       # number of demand (read+write) misses (Count)
system.cpu.dcache.overallMisses::cpu.data        84260                       # number of overall misses (Count)
system.cpu.dcache.overallMisses::total          84260                       # number of overall misses (Count)
system.cpu.dcache.demandMissLatency::cpu.data   6810703999                       # number of demand (read+write) miss ticks (Tick)
system.cpu.dcache.demandMissLatency::total   6810703999                       # number of demand (read+write) miss ticks (Tick)
system.cpu.dcache.overallMissLatency::cpu.data   6810703999                       # number of overall miss ticks (Tick)
system.cpu.dcache.overallMissLatency::total   6810703999                       # number of overall miss ticks (Tick)
system.cpu.dcache.demandAccesses::cpu.data     18178754                       # number of demand (read+write) accesses (Count)
system.cpu.dcache.demandAccesses::total      18178754                       # number of demand (read+write) accesses (Count)
system.cpu.dcache.overallAccesses::cpu.data     18178754                       # number of overall (read+write) accesses (Count)
system.cpu.dcache.overallAccesses::total     18178754                       # number of overall (read+write) accesses (Count)
system.cpu.dcache.demandMissRate::cpu.data     0.004635                       # miss rate for demand accesses (Ratio)
system.cpu.dcache.demandMissRate::total      0.004635                       # miss rate for demand accesses (Ratio)
system.cpu.dcache.overallMissRate::cpu.data     0.004635                       # miss rate for overall accesses (Ratio)
system.cpu.dcache.overallMissRate::total     0.004635                       # miss rate for overall accesses (Ratio)
system.cpu.dcache.demandAvgMissLatency::cpu.data 80829.622585                       # average overall miss latency in ticks ((Tick/Count))
system.cpu.dcache.demandAvgMissLatency::total 80829.622585                       # average overall miss latency in ticks ((Tick/Count))
system.cpu.dcache.overallAvgMissLatency::cpu.data 80829.622585                       # average overall miss latency ((Tick/Count))
system.cpu.dcache.overallAvgMissLatency::total 80829.622585                       # average overall miss latency ((Tick/Count))
system.cpu.dcache.blockedCycles::no_mshrs         1869                       # number of cycles access was blocked (Cycle)
system.cpu.dcache.blockedCycles::no_targets            0                       # number of cycles access was blocked (Cycle)
system.cpu.dcache.blockedCauses::no_mshrs           55                       # number of times access was blocked (Count)
system.cpu.dcache.blockedCauses::no_targets            0                       # number of times access was blocked (Count)
system.cpu.dcache.avgBlocked::no_mshrs      33.981818                       # average number of cycles each access was blocked ((Cycle/Count))
system.cpu.dcache.avgBlocked::no_targets          nan                       # average number of cycles each access was blocked ((Cycle/Count))
system.cpu.dcache.writebacks::writebacks        64258                       # number of writebacks (Count)
system.cpu.dcache.writebacks::total             64258                       # number of writebacks (Count)
system.cpu.dcache.demandMshrHits::cpu.data        14286                       # number of demand (read+write) MSHR hits (Count)
system.cpu.dcache.demandMshrHits::total         14286                       # number of demand (read+write) MSHR hits (Count)
system.cpu.dcache.overallMshrHits::cpu.data        14286                       # number of overall MSHR hits (Count)
system.cpu.dcache.overallMshrHits::total        14286                       # number of overall MSHR hits (Count)
system.cpu.dcache.demandMshrMisses::cpu.data        69974                       # number of demand (read+write) MSHR misses (Count)
system.cpu.dcache.demandMshrMisses::total        69974                       # number of demand (read+write) MSHR misses (Count)
system.cpu.dcache.overallMshrMisses::cpu.data        69974                       # number of overall MSHR misses (Count)
system.cpu.dcache.overallMshrMisses::total        69974                       # number of overall MSHR misses (Count)
system.cpu.dcache.demandMshrMissLatency::cpu.data   6126523999                       # number of demand (read+write) MSHR miss ticks (Tick)
system.cpu.dcache.demandMshrMissLatency::total   6126523999                       # number of demand (read+write) MSHR miss ticks (Tick)
system.cpu.dcache.overallMshrMissLatency::cpu.data   6126523999                       # number of overall MSHR miss ticks (Tick)
system.cpu.dcache.overallMshrMissLatency::total   6126523999                       # number of overall MSHR miss ticks (Tick)
system.cpu.dcache.demandMshrMissRate::cpu.data     0.003849                       # mshr miss ratio for demand accesses (Ratio)
system.cpu.dcache.demandMshrMissRate::total     0.003849                       # mshr miss ratio for demand accesses (Ratio)
system.cpu.dcache.overallMshrMissRate::cpu.data     0.003849                       # mshr miss ratio for overall accesses (Ratio)
system.cpu.dcache.overallMshrMissRate::total     0.003849                       # mshr miss ratio for overall accesses (Ratio)
system.cpu.dcache.demandAvgMshrMissLatency::cpu.data 87554.291580                       # average overall mshr miss latency ((Tick/Count))
system.cpu.dcache.demandAvgMshrMissLatency::total 87554.291580                       # average overall mshr miss latency ((Tick/Count))
system.cpu.dcache.overallAvgMshrMissLatency::cpu.data 87554.291580                       # average overall mshr miss latency ((Tick/Count))
system.cpu.dcache.overallAvgMshrMissLatency::total 87554.291580                       # average overall mshr miss latency ((Tick/Count))
system.cpu.dcache.replacements                  69462                       # number of replacements (Count)
system.cpu.dcache.LockedRMWReadReq.hits::cpu.data           12                       # number of LockedRMWReadReq hits (Count)
system.cpu.dcache.LockedRMWReadReq.hits::total           12                       # number of LockedRMWReadReq hits (Count)
system.cpu.dcache.LockedRMWReadReq.accesses::cpu.data           12                       # number of LockedRMWReadReq accesses(hits+misses) (Count)
system.cpu.dcache.LockedRMWReadReq.accesses::total           12                       # number of LockedRMWReadReq accesses(hits+misses) (Count)
system.cpu.dcache.LockedRMWReadReq.mshrMissLatency::cpu.data       114000                       # number of LockedRMWReadReq MSHR miss ticks (Tick)
system.cpu.dcache.LockedRMWReadReq.mshrMissLatency::total       114000                       # number of LockedRMWReadReq MSHR miss ticks (Tick)
system.cpu.dcache.LockedRMWReadReq.avgMshrMissLatency::cpu.data          inf                       # average LockedRMWReadReq mshr miss latency ((Tick/Count))
system.cpu.dcache.LockedRMWReadReq.avgMshrMissLatency::total          inf                       # average LockedRMWReadReq mshr miss latency ((Tick/Count))
system.cpu.dcache.LockedRMWWriteReq.hits::cpu.data           12                       # number of LockedRMWWriteReq hits (Count)
system.cpu.dcache.LockedRMWWriteReq.hits::total           12                       # number of LockedRMWWriteReq hits (Count)
system.cpu.dcache.LockedRMWWriteReq.accesses::cpu.data           12                       # number of LockedRMWWriteReq accesses(hits+misses) (Count)
system.cpu.dcache.LockedRMWWriteReq.accesses::total           12                       # number of LockedRMWWriteReq accesses(hits+misses) (Count)
system.cpu.dcache.ReadReq.hits::cpu.data     11182823                       # number of ReadReq hits (Count)
system.cpu.dcache.ReadReq.hits::total        11182823                       # number of ReadReq hits (Count)
system.cpu.dcache.ReadReq.misses::cpu.data        32926                       # number of ReadReq misses (Count)
system.cpu.dcache.ReadReq.misses::total         32926                       # number of ReadReq misses (Count)
system.cpu.dcache.ReadReq.missLatency::cpu.data   1851610000                       # number of ReadReq miss ticks (Tick)
system.cpu.dcache.ReadReq.missLatency::total   1851610000                       # number of ReadReq miss ticks (Tick)
system.cpu.dcache.ReadReq.accesses::cpu.data     11215749                       # number of ReadReq accesses(hits+misses) (Count)
system.cpu.dcache.ReadReq.accesses::total     11215749                       # number of ReadReq accesses(hits+misses) (Count)
system.cpu.dcache.ReadReq.missRate::cpu.data     0.002936                       # miss rate for ReadReq accesses (Ratio)
system.cpu.dcache.ReadReq.missRate::total     0.002936                       # miss rate for ReadReq accesses (Ratio)
system.cpu.dcache.ReadReq.avgMissLatency::cpu.data 56235.497783                       # average ReadReq miss latency ((Tick/Count))
system.cpu.dcache.ReadReq.avgMissLatency::total 56235.497783                       # average ReadReq miss latency ((Tick/Count))
system.cpu.dcache.ReadReq.mshrHits::cpu.data        10548                       # number of ReadReq MSHR hits (Count)
system.cpu.dcache.ReadReq.mshrHits::total        10548                       # number of ReadReq MSHR hits (Count)
system.cpu.dcache.ReadReq.mshrMisses::cpu.data        22378                       # number of ReadReq MSHR misses (Count)
system.cpu.dcache.ReadReq.mshrMisses::total        22378                       # number of ReadReq MSHR misses (Count)
system.cpu.dcache.ReadReq.mshrMissLatency::cpu.data   1363336000                       # number of ReadReq MSHR miss ticks (Tick)
system.cpu.dcache.ReadReq.mshrMissLatency::total   1363336000                       # number of ReadReq MSHR miss ticks (Tick)
system.cpu.dcache.ReadReq.mshrMissRate::cpu.data     0.001995                       # mshr miss rate for ReadReq accesses (Ratio)
system.cpu.dcache.ReadReq.mshrMissRate::total     0.001995                       # mshr miss rate for ReadReq accesses (Ratio)
system.cpu.dcache.ReadReq.avgMshrMissLatency::cpu.data 60923.049424                       # average ReadReq mshr miss latency ((Tick/Count))
system.cpu.dcache.ReadReq.avgMshrMissLatency::total 60923.049424                       # average ReadReq mshr miss latency ((Tick/Count))
system.cpu.dcache.WriteReq.hits::cpu.data      6911671                       # number of WriteReq hits (Count)
system.cpu.dcache.WriteReq.hits::total        6911671                       # number of WriteReq hits (Count)
system.cpu.dcache.WriteReq.misses::cpu.data        51334                       # number of WriteReq misses (Count)
system.cpu.dcache.WriteReq.misses::total        51334                       # number of WriteReq misses (Count)
system.cpu.dcache.WriteReq.missLatency::cpu.data   4959093999                       # number of WriteReq miss ticks (Tick)
system.cpu.dcache.WriteReq.missLatency::total   4959093999                       # number of WriteReq miss ticks (Tick)
system.cpu.dcache.WriteReq.accesses::cpu.data      6963005                       # number of WriteReq accesses(hits+misses) (Count)
system.cpu.dcache.WriteReq.accesses::total      6963005                       # number of WriteReq accesses(hits+misses) (Count)
system.cpu.dcache.WriteReq.missRate::cpu.data     0.007372                       # miss rate for WriteReq accesses (Ratio)
system.cpu.dcache.WriteReq.missRate::total     0.007372                       # miss rate for WriteReq accesses (Ratio)
system.cpu.dcache.WriteReq.avgMissLatency::cpu.data 96604.472650                       # average WriteReq miss latency ((Tick/Count))
system.cpu.dcache.WriteReq.avgMissLatency::total 96604.472650                       # average WriteReq miss latency ((Tick/Count))
system.cpu.dcache.WriteReq.mshrHits::cpu.data         3738                       # number of WriteReq MSHR hits (Count)
system.cpu.dcache.WriteReq.mshrHits::total         3738                       # number of WriteReq MSHR hits (Count)
system.cpu.dcache.WriteReq.mshrMisses::cpu.data        47596                       # number of WriteReq MSHR misses (Count)
system.cpu.dcache.WriteReq.mshrMisses::total        47596                       # number of WriteReq MSHR misses (Count)
system.cpu.dcache.WriteReq.mshrMissLatency::cpu.data   4763187999                       # number of WriteReq MSHR miss ticks (Tick)
system.cpu.dcache.WriteReq.mshrMissLatency::total   4763187999                       # number of WriteReq MSHR miss ticks (Tick)
system.cpu.dcache.WriteReq.mshrMissRate::cpu.data     0.006836                       # mshr miss rate for WriteReq accesses (Ratio)
system.cpu.dcache.WriteReq.mshrMissRate::total     0.006836                       # mshr miss rate for WriteReq accesses (Ratio)
system.cpu.dcache.WriteReq.avgMshrMissLatency::cpu.data 100075.384465                       # average WriteReq mshr miss latency ((Tick/Count))
system.cpu.dcache.WriteReq.avgMshrMissLatency::total 100075.384465                       # average WriteReq mshr miss latency ((Tick/Count))
system.cpu.dcache.power_state.pwrStateResidencyTicks::UNDEFINED  44889153000                       # Cumulative time (in ticks) in various power states (Tick)
system.cpu.dcache.tags.tagsInUse           511.206456                       # Average ticks per tags in use ((Tick/Count))
system.cpu.dcache.tags.totalRefs             18164492                       # Total number of references to valid blocks. (Count)
system.cpu.dcache.tags.sampledRefs              69974                       # Sample count of references to valid blocks. (Count)
system.cpu.dcache.tags.avgRefs             259.589162                       # Average number of references to valid blocks. ((Count/Count))
system.cpu.dcache.tags.warmupTick              222000                       # The tick when the warmup percentage was hit. (Tick)
system.cpu.dcache.tags.occupancies::cpu.data   511.206456                       # Average occupied blocks per tick, per requestor ((Count/Tick))
system.cpu.dcache.tags.avgOccs::cpu.data     0.998450                       # Average percentage of cache occupancy ((Ratio/Tick))
system.cpu.dcache.tags.avgOccs::total        0.998450                       # Average percentage of cache occupancy ((Ratio/Tick))
system.cpu.dcache.tags.occupanciesTaskId::1024          512                       # Occupied blocks per task id (Count)
system.cpu.dcache.tags.ageTaskId_1024::0            9                       # Occupied blocks per task id, per block age (Count)
system.cpu.dcache.tags.ageTaskId_1024::1           87                       # Occupied blocks per task id, per block age (Count)
system.cpu.dcache.tags.ageTaskId_1024::2          341                       # Occupied blocks per task id, per block age (Count)
system.cpu.dcache.tags.ageTaskId_1024::3           33                       # Occupied blocks per task id, per block age (Count)
system.cpu.dcache.tags.ageTaskId_1024::4           42                       # Occupied blocks per task id, per block age (Count)
system.cpu.dcache.tags.ratioOccsTaskId::1024            1                       # Ratio of occupied blocks and all blocks, per task id (Ratio)
system.cpu.dcache.tags.tagAccesses           72785086                       # Number of tag accesses (Count)
system.cpu.dcache.tags.dataAccesses          72785086                       # Number of data accesses (Count)
system.cpu.dcache.tags.power_state.pwrStateResidencyTicks::UNDEFINED  44889153000                       # Cumulative time (in ticks) in various power states (Tick)
system.cpu.decode.idleCycles                 13576987                       # Number of cycles decode is idle (Cycle)
system.cpu.decode.blockedCycles               6671981                       # Number of cycles decode is blocked (Cycle)
system.cpu.decode.runCycles                  22148330                       # Number of cycles decode is running (Cycle)
system.cpu.decode.unblockCycles               1049805                       # Number of cycles decode is unblocking (Cycle)
system.cpu.decode.squashCycles                1416071                       # Number of cycles decode is squashing (Cycle)
system.cpu.decode.branchResolved              4869640                       # Number of times decode resolved a branch (Count)
system.cpu.decode.branchMispred                601101                       # Number of times decode detected a branch misprediction (Count)
system.cpu.decode.decodedInsts              151527087                       # Number of instructions handled by decode (Count)
system.cpu.decode.squashedInsts               3394296                       # Number of squashed instructions handled by decode (Count)
system.cpu.fetch.icacheStallCycles           13524880                       # Number of cycles fetch is stalled on an Icache miss (Cycle)
system.cpu.fetch.insts                       88643511                       # Number of instructions fetch has processed (Count)
system.cpu.fetch.branches                    20191281                       # Number of branches that fetch encountered (Count)
system.cpu.fetch.predictedBranches            5663741                       # Number of branches that fetch has predicted taken (Count)
system.cpu.fetch.cycles                      28555995                       # Number of cycles fetch has run and was not squashing or blocked (Cycle)
system.cpu.fetch.squashCycles                 3994528                       # Number of cycles fetch has spent squashing (Cycle)
system.cpu.fetch.miscStallCycles                76096                       # Number of cycles fetch has spent waiting on interrupts, or bad addresses, or out of MSHRs (Cycle)
system.cpu.fetch.pendingTrapStallCycles        708933                       # Number of stall cycles due to pending traps (Cycle)
system.cpu.fetch.icacheWaitRetryStallCycles            6                       # Number of stall cycles due to full MSHR (Cycle)
system.cpu.fetch.cacheLines                  12144715                       # Number of cache lines fetched (Count)
system.cpu.fetch.icacheSquashes                385290                       # Number of outstanding Icache misses that were squashed (Count)
system.cpu.fetch.nisnDist::samples           44863174                       # Number of instructions fetched each cycle (Total) (Count)
system.cpu.fetch.nisnDist::mean              3.720971                       # Number of instructions fetched each cycle (Total) (Count)
system.cpu.fetch.nisnDist::stdev             3.660745                       # Number of instructions fetched each cycle (Total) (Count)
system.cpu.fetch.nisnDist::underflows               0      0.00%      0.00% # Number of instructions fetched each cycle (Total) (Count)
system.cpu.fetch.nisnDist::0                 19425142     43.30%     43.30% # Number of instructions fetched each cycle (Total) (Count)
system.cpu.fetch.nisnDist::1                   857487      1.91%     45.21% # Number of instructions fetched each cycle (Total) (Count)
system.cpu.fetch.nisnDist::2                  1518852      3.39%     48.60% # Number of instructions fetched each cycle (Total) (Count)
system.cpu.fetch.nisnDist::3                  1864800      4.16%     52.75% # Number of instructions fetched each cycle (Total) (Count)
system.cpu.fetch.nisnDist::4                  1185048      2.64%     55.39% # Number of instructions fetched each cycle (Total) (Count)
system.cpu.fetch.nisnDist::5                  1216567      2.71%     58.11% # Number of instructions fetched each cycle (Total) (Count)
system.cpu.fetch.nisnDist::6                  1243906      2.77%     60.88% # Number of instructions fetched each cycle (Total) (Count)
system.cpu.fetch.nisnDist::7                  1252457      2.79%     63.67% # Number of instructions fetched each cycle (Total) (Count)
system.cpu.fetch.nisnDist::8                 16298915     36.33%    100.00% # Number of instructions fetched each cycle (Total) (Count)
system.cpu.fetch.nisnDist::overflows                0      0.00%    100.00% # Number of instructions fetched each cycle (Total) (Count)
system.cpu.fetch.nisnDist::min_value                0                       # Number of instructions fetched each cycle (Total) (Count)
system.cpu.fetch.nisnDist::max_value                8                       # Number of instructions fetched each cycle (Total) (Count)
system.cpu.fetch.nisnDist::total             44863174                       # Number of instructions fetched each cycle (Total) (Count)
system.cpu.fetch.branchRate                  0.449803                       # Number of branch fetches per cycle (Ratio)
system.cpu.fetch.rate                        1.974720                       # Number of inst fetches per cycle ((Count/Cycle))
system.cpu.icache.demandHits::cpu.inst       12143638                       # number of demand (read+write) hits (Count)
system.cpu.icache.demandHits::total          12143638                       # number of demand (read+write) hits (Count)
system.cpu.icache.overallHits::cpu.inst      12143638                       # number of overall hits (Count)
system.cpu.icache.overallHits::total         12143638                       # number of overall hits (Count)
system.cpu.icache.demandMisses::cpu.inst         1077                       # number of demand (read+write) misses (Count)
system.cpu.icache.demandMisses::total            1077                       # number of demand (read+write) misses (Count)
system.cpu.icache.overallMisses::cpu.inst         1077                       # number of overall misses (Count)
system.cpu.icache.overallMisses::total           1077                       # number of overall misses (Count)
system.cpu.icache.demandMissLatency::cpu.inst     84869000                       # number of demand (read+write) miss ticks (Tick)
system.cpu.icache.demandMissLatency::total     84869000                       # number of demand (read+write) miss ticks (Tick)
system.cpu.icache.overallMissLatency::cpu.inst     84869000                       # number of overall miss ticks (Tick)
system.cpu.icache.overallMissLatency::total     84869000                       # number of overall miss ticks (Tick)
system.cpu.icache.demandAccesses::cpu.inst     12144715                       # number of demand (read+write) accesses (Count)
system.cpu.icache.demandAccesses::total      12144715                       # number of demand (read+write) accesses (Count)
system.cpu.icache.overallAccesses::cpu.inst     12144715                       # number of overall (read+write) accesses (Count)
system.cpu.icache.overallAccesses::total     12144715                       # number of overall (read+write) accesses (Count)
system.cpu.icache.demandMissRate::cpu.inst     0.000089                       # miss rate for demand accesses (Ratio)
system.cpu.icache.demandMissRate::total      0.000089                       # miss rate for demand accesses (Ratio)
system.cpu.icache.overallMissRate::cpu.inst     0.000089                       # miss rate for overall accesses (Ratio)
system.cpu.icache.overallMissRate::total     0.000089                       # miss rate for overall accesses (Ratio)
system.cpu.icache.demandAvgMissLatency::cpu.inst 78801.299907                       # average overall miss latency in ticks ((Tick/Count))
system.cpu.icache.demandAvgMissLatency::total 78801.299907                       # average overall miss latency in ticks ((Tick/Count))
system.cpu.icache.overallAvgMissLatency::cpu.inst 78801.299907                       # average overall miss latency ((Tick/Count))
system.cpu.icache.overallAvgMissLatency::total 78801.299907                       # average overall miss latency ((Tick/Count))
system.cpu.icache.blockedCycles::no_mshrs           47                       # number of cycles access was blocked (Cycle)
system.cpu.icache.blockedCycles::no_targets            0                       # number of cycles access was blocked (Cycle)
system.cpu.icache.blockedCauses::no_mshrs            2                       # number of times access was blocked (Count)
system.cpu.icache.blockedCauses::no_targets            0                       # number of times access was blocked (Count)
system.cpu.icache.avgBlocked::no_mshrs      23.500000                       # average number of cycles each access was blocked ((Cycle/Count))
system.cpu.icache.avgBlocked::no_targets          nan                       # average number of cycles each access was blocked ((Cycle/Count))
system.cpu.icache.demandMshrHits::cpu.inst          251                       # number of demand (read+write) MSHR hits (Count)
system.cpu.icache.demandMshrHits::total           251                       # number of demand (read+write) MSHR hits (Count)
system.cpu.icache.overallMshrHits::cpu.inst          251                       # number of overall MSHR hits (Count)
system.cpu.icache.overallMshrHits::total          251                       # number of overall MSHR hits (Count)
system.cpu.icache.demandMshrMisses::cpu.inst          826                       # number of demand (read+write) MSHR misses (Count)
system.cpu.icache.demandMshrMisses::total          826                       # number of demand (read+write) MSHR misses (Count)
system.cpu.icache.overallMshrMisses::cpu.inst          826                       # number of overall MSHR misses (Count)
system.cpu.icache.overallMshrMisses::total          826                       # number of overall MSHR misses (Count)
system.cpu.icache.demandMshrMissLatency::cpu.inst     67633000                       # number of demand (read+write) MSHR miss ticks (Tick)
system.cpu.icache.demandMshrMissLatency::total     67633000                       # number of demand (read+write) MSHR miss ticks (Tick)
system.cpu.icache.overallMshrMissLatency::cpu.inst     67633000                       # number of overall MSHR miss ticks (Tick)
system.cpu.icache.overallMshrMissLatency::total     67633000                       # number of overall MSHR miss ticks (Tick)
system.cpu.icache.demandMshrMissRate::cpu.inst     0.000068                       # mshr miss ratio for demand accesses (Ratio)
system.cpu.icache.demandMshrMissRate::total     0.000068                       # mshr miss ratio for demand accesses (Ratio)
system.cpu.icache.overallMshrMissRate::cpu.inst     0.000068                       # mshr miss ratio for overall accesses (Ratio)
system.cpu.icache.overallMshrMissRate::total     0.000068                       # mshr miss ratio for overall accesses (Ratio)
system.cpu.icache.demandAvgMshrMissLatency::cpu.inst 81880.145278                       # average overall mshr miss latency ((Tick/Count))
system.cpu.icache.demandAvgMshrMissLatency::total 81880.145278                       # average overall mshr miss latency ((Tick/Count))
system.cpu.icache.overallAvgMshrMissLatency::cpu.inst 81880.145278                       # average overall mshr miss latency ((Tick/Count))
system.cpu.icache.overallAvgMshrMissLatency::total 81880.145278                       # average overall mshr miss latency ((Tick/Count))
system.cpu.icache.replacements                    392                       # number of replacements (Count)
system.cpu.icache.ReadReq.hits::cpu.inst     12143638                       # number of ReadReq hits (Count)
system.cpu.icache.ReadReq.hits::total        12143638                       # number of ReadReq hits (Count)
system.cpu.icache.ReadReq.misses::cpu.inst         1077                       # number of ReadReq misses (Count)
system.cpu.icache.ReadReq.misses::total          1077                       # number of ReadReq misses (Count)
system.cpu.icache.ReadReq.missLatency::cpu.inst     84869000                       # number of ReadReq miss ticks (Tick)
system.cpu.icache.ReadReq.missLatency::total     84869000                       # number of ReadReq miss ticks (Tick)
system.cpu.icache.ReadReq.accesses::cpu.inst     12144715                       # number of ReadReq accesses(hits+misses) (Count)
system.cpu.icache.ReadReq.accesses::total     12144715                       # number of ReadReq accesses(hits+misses) (Count)
system.cpu.icache.ReadReq.missRate::cpu.inst     0.000089                       # miss rate for ReadReq accesses (Ratio)
system.cpu.icache.ReadReq.missRate::total     0.000089                       # miss rate for ReadReq accesses (Ratio)
system.cpu.icache.ReadReq.avgMissLatency::cpu.inst 78801.299907                       # average ReadReq miss latency ((Tick/Count))
system.cpu.icache.ReadReq.avgMissLatency::total 78801.299907                       # average ReadReq miss latency ((Tick/Count))
system.cpu.icache.ReadReq.mshrHits::cpu.inst          251                       # number of ReadReq MSHR hits (Count)
system.cpu.icache.ReadReq.mshrHits::total          251                       # number of ReadReq MSHR hits (Count)
system.cpu.icache.ReadReq.mshrMisses::cpu.inst          826                       # number of ReadReq MSHR misses (Count)
system.cpu.icache.ReadReq.mshrMisses::total          826                       # number of ReadReq MSHR misses (Count)
system.cpu.icache.ReadReq.mshrMissLatency::cpu.inst     67633000                       # number of ReadReq MSHR miss ticks (Tick)
system.cpu.icache.ReadReq.mshrMissLatency::total     67633000                       # number of ReadReq MSHR miss ticks (Tick)
system.cpu.icache.ReadReq.mshrMissRate::cpu.inst     0.000068                       # mshr miss rate for ReadReq accesses (Ratio)
system.cpu.icache.ReadReq.mshrMissRate::total     0.000068                       # mshr miss rate for ReadReq accesses (Ratio)
system.cpu.icache.ReadReq.avgMshrMissLatency::cpu.inst 81880.145278                       # average ReadReq mshr miss latency ((Tick/Count))
system.cpu.icache.ReadReq.avgMshrMissLatency::total 81880.145278                       # average ReadReq mshr miss latency ((Tick/Count))
system.cpu.icache.power_state.pwrStateResidencyTicks::UNDEFINED  44889153000                       # Cumulative time (in ticks) in various power states (Tick)
system.cpu.icache.tags.tagsInUse           432.692523                       # Average ticks per tags in use ((Tick/Count))
system.cpu.icache.tags.totalRefs             12144464                       # Total number of references to valid blocks. (Count)
system.cpu.icache.tags.sampledRefs                826                       # Sample count of references to valid blocks. (Count)
system.cpu.icache.tags.avgRefs           14702.740920                       # Average number of references to valid blocks. ((Count/Count))
system.cpu.icache.tags.warmupTick              107000                       # The tick when the warmup percentage was hit. (Tick)
system.cpu.icache.tags.occupancies::cpu.inst   432.692523                       # Average occupied blocks per tick, per requestor ((Count/Tick))
system.cpu.icache.tags.avgOccs::cpu.inst     0.845103                       # Average percentage of cache occupancy ((Ratio/Tick))
system.cpu.icache.tags.avgOccs::total        0.845103                       # Average percentage of cache occupancy ((Ratio/Tick))
system.cpu.icache.tags.occupanciesTaskId::1024          434                       # Occupied blocks per task id (Count)
system.cpu.icache.tags.ageTaskId_1024::2            4                       # Occupied blocks per task id, per block age (Count)
system.cpu.icache.tags.ageTaskId_1024::4          430                       # Occupied blocks per task id, per block age (Count)
system.cpu.icache.tags.ratioOccsTaskId::1024     0.847656                       # Ratio of occupied blocks and all blocks, per task id (Ratio)
system.cpu.icache.tags.tagAccesses           24290256                       # Number of tag accesses (Count)
system.cpu.icache.tags.dataAccesses          24290256                       # Number of data accesses (Count)
system.cpu.icache.tags.power_state.pwrStateResidencyTicks::UNDEFINED  44889153000                       # Cumulative time (in ticks) in various power states (Tick)
system.cpu.iew.idleCycles                           0                       # Number of cycles IEW is idle (Cycle)
system.cpu.iew.squashCycles                   1416071                       # Number of cycles IEW is squashing (Cycle)
system.cpu.iew.blockCycles                    4290521                       # Number of cycles IEW is blocking (Cycle)
system.cpu.iew.unblockCycles                     5316                       # Number of cycles IEW is unblocking (Cycle)
system.cpu.iew.dispatchedInsts              133689469                       # Number of instructions dispatched to IQ (Count)
system.cpu.iew.dispSquashedInsts               247691                       # Number of squashed instructions skipped by dispatch (Count)
system.cpu.iew.dispLoadInsts                 14569419                       # Number of dispatched load instructions (Count)
system.cpu.iew.dispStoreInsts                 9552366                       # Number of dispatched store instructions (Count)
system.cpu.iew.dispNonSpecInsts                 25503                       # Number of dispatched non-speculative instructions (Count)
system.cpu.iew.iqFullEvents                        24                       # Number of times the IQ has become full, causing a stall (Count)
system.cpu.iew.lsqFullEvents                     5393                       # Number of times the LSQ has become full, causing a stall (Count)
system.cpu.iew.memOrderViolationEvents            844                       # Number of memory order violations (Count)
system.cpu.iew.predictedTakenIncorrect         221912                       # Number of branches that were predicted taken incorrectly (Count)
system.cpu.iew.predictedNotTakenIncorrect      1621947                       # Number of branches that were predicted not taken incorrectly (Count)
system.cpu.iew.branchMispredicts              1843859                       # Number of branch mispredicts detected at execute (Count)
system.cpu.iew.instsToCommit                118943202                       # Cumulative count of insts sent to commit (Count)
system.cpu.iew.writebackCount               118335036                       # Cumulative count of insts written-back (Count)
system.cpu.iew.producerInst                  84537026                       # Number of instructions producing a value (Count)
system.cpu.iew.consumerInst                 133488388                       # Number of instructions consuming a value (Count)
system.cpu.iew.wbRate                        2.636161                       # Insts written-back per cycle ((Count/Cycle))
system.cpu.iew.wbFanout                      0.633291                       # Average fanout of values written-back ((Count/Count))
system.cpu.interrupts.clk_domain.clock          16000                       # Clock period in ticks (Tick)
system.cpu.lsq0.forwLoads                     1905590                       # Number of loads that had data forwarded from stores (Count)
system.cpu.lsq0.squashedLoads                 3916056                       # Number of loads squashed (Count)
system.cpu.lsq0.ignoredResponses               105400                       # Number of memory responses ignored because the instruction is squashed (Count)
system.cpu.lsq0.memOrderViolation                 844                       # Number of memory ordering violations (Count)
system.cpu.lsq0.squashedStores                2589324                       # Number of stores squashed (Count)
system.cpu.lsq0.rescheduledLoads                    0                       # Number of loads that were rescheduled (Count)
system.cpu.lsq0.blockedByCache                     42                       # Number of times an access to memory failed due to the cache being blocked (Count)
system.cpu.lsq0.loadToUse::samples           10653362                       # Distribution of cycle latency between the first time a load is issued and its completion (Unspecified)
system.cpu.lsq0.loadToUse::mean              3.212835                       # Distribution of cycle latency between the first time a load is issued and its completion (Unspecified)
system.cpu.lsq0.loadToUse::stdev             3.691650                       # Distribution of cycle latency between the first time a load is issued and its completion (Unspecified)
system.cpu.lsq0.loadToUse::0-9               10632757     99.81%     99.81% # Distribution of cycle latency between the first time a load is issued and its completion (Unspecified)
system.cpu.lsq0.loadToUse::10-19                   65      0.00%     99.81% # Distribution of cycle latency between the first time a load is issued and its completion (Unspecified)
system.cpu.lsq0.loadToUse::20-29                 6444      0.06%     99.87% # Distribution of cycle latency between the first time a load is issued and its completion (Unspecified)
system.cpu.lsq0.loadToUse::30-39                   25      0.00%     99.87% # Distribution of cycle latency between the first time a load is issued and its completion (Unspecified)
system.cpu.lsq0.loadToUse::40-49                  648      0.01%     99.87% # Distribution of cycle latency between the first time a load is issued and its completion (Unspecified)
system.cpu.lsq0.loadToUse::50-59                   87      0.00%     99.87% # Distribution of cycle latency between the first time a load is issued and its completion (Unspecified)
system.cpu.lsq0.loadToUse::60-69                   58      0.00%     99.88% # Distribution of cycle latency between the first time a load is issued and its completion (Unspecified)
system.cpu.lsq0.loadToUse::70-79                   41      0.00%     99.88% # Distribution of cycle latency between the first time a load is issued and its completion (Unspecified)
system.cpu.lsq0.loadToUse::80-89                 2179      0.02%     99.90% # Distribution of cycle latency between the first time a load is issued and its completion (Unspecified)
system.cpu.lsq0.loadToUse::90-99                 8981      0.08%     99.98% # Distribution of cycle latency between the first time a load is issued and its completion (Unspecified)
system.cpu.lsq0.loadToUse::100-109                 28      0.00%     99.98% # Distribution of cycle latency between the first time a load is issued and its completion (Unspecified)
system.cpu.lsq0.loadToUse::110-119               1473      0.01%     99.99% # Distribution of cycle latency between the first time a load is issued and its completion (Unspecified)
system.cpu.lsq0.loadToUse::120-129                176      0.00%    100.00% # Distribution of cycle latency between the first time a load is issued and its completion (Unspecified)
system.cpu.lsq0.loadToUse::130-139                 32      0.00%    100.00% # Distribution of cycle latency between the first time a load is issued and its completion (Unspecified)
system.cpu.lsq0.loadToUse::140-149                 22      0.00%    100.00% # Distribution of cycle latency between the first time a load is issued and its completion (Unspecified)
system.cpu.lsq0.loadToUse::150-159                 26      0.00%    100.00% # Distribution of cycle latency between the first time a load is issued and its completion (Unspecified)
system.cpu.lsq0.loadToUse::160-169                 18      0.00%    100.00% # Distribution of cycle latency between the first time a load is issued and its completion (Unspecified)
system.cpu.lsq0.loadToUse::170-179                 17      0.00%    100.00% # Distribution of cycle latency between the first time a load is issued and its completion (Unspecified)
system.cpu.lsq0.loadToUse::180-189                 18      0.00%    100.00% # Distribution of cycle latency between the first time a load is issued and its completion (Unspecified)
system.cpu.lsq0.loadToUse::190-199                 12      0.00%    100.00% # Distribution of cycle latency between the first time a load is issued and its completion (Unspecified)
system.cpu.lsq0.loadToUse::200-209                 18      0.00%    100.00% # Distribution of cycle latency between the first time a load is issued and its completion (Unspecified)
system.cpu.lsq0.loadToUse::210-219                  9      0.00%    100.00% # Distribution of cycle latency between the first time a load is issued and its completion (Unspecified)
system.cpu.lsq0.loadToUse::220-229                 21      0.00%    100.00% # Distribution of cycle latency between the first time a load is issued and its completion (Unspecified)
[...]
system.mem_ctrl.dram.bytesWritten::total      1614144                       # Number of bytes written to this memory (Byte)
system.mem_ctrl.dram.numReads::cpu.inst           604                       # Number of read requests responded to by this memory (Count)
system.mem_ctrl.dram.numReads::cpu.data         58060                       # Number of read requests responded to by this memory (Count)
system.mem_ctrl.dram.numReads::total            58664                       # Number of read requests responded to by this memory (Count)
system.mem_ctrl.dram.numWrites::writebacks        25221                       # Number of write requests responded to by this memory (Count)
system.mem_ctrl.dram.numWrites::total           25221                       # Number of write requests responded to by this memory (Count)
system.mem_ctrl.dram.bwRead::cpu.inst          861143                       # Total read bandwidth from this memory ((Byte/Second))
system.mem_ctrl.dram.bwRead::cpu.data        82778127                       # Total read bandwidth from this memory ((Byte/Second))
system.mem_ctrl.dram.bwRead::total           83639270                       # Total read bandwidth from this memory ((Byte/Second))
system.mem_ctrl.dram.bwInstRead::cpu.inst       861143                       # Instruction read bandwidth from this memory ((Byte/Second))
system.mem_ctrl.dram.bwInstRead::total         861143                       # Instruction read bandwidth from this memory ((Byte/Second))
system.mem_ctrl.dram.bwWrite::writebacks     35958442                       # Write bandwidth from this memory ((Byte/Second))
system.mem_ctrl.dram.bwWrite::total          35958442                       # Write bandwidth from this memory ((Byte/Second))
system.mem_ctrl.dram.bwTotal::writebacks     35958442                       # Total bandwidth to/from this memory ((Byte/Second))
system.mem_ctrl.dram.bwTotal::cpu.inst         861143                       # Total bandwidth to/from this memory ((Byte/Second))
system.mem_ctrl.dram.bwTotal::cpu.data       82778127                       # Total bandwidth to/from this memory ((Byte/Second))
system.mem_ctrl.dram.bwTotal::total         119597712                       # Total bandwidth to/from this memory ((Byte/Second))
system.mem_ctrl.dram.readBursts                 58662                       # Number of DRAM read bursts (Count)
system.mem_ctrl.dram.writeBursts                25192                       # Number of DRAM write bursts (Count)
system.mem_ctrl.dram.perBankRdBursts::0          3691                       # Per bank write bursts (Count)
system.mem_ctrl.dram.perBankRdBursts::1          3675                       # Per bank write bursts (Count)
system.mem_ctrl.dram.perBankRdBursts::2          3736                       # Per bank write bursts (Count)
system.mem_ctrl.dram.perBankRdBursts::3          3651                       # Per bank write bursts (Count)
system.mem_ctrl.dram.perBankRdBursts::4          3673                       # Per bank write bursts (Count)
system.mem_ctrl.dram.perBankRdBursts::5          3705                       # Per bank write bursts (Count)
system.mem_ctrl.dram.perBankRdBursts::6          3722                       # Per bank write bursts (Count)
system.mem_ctrl.dram.perBankRdBursts::7          3569                       # Per bank write bursts (Count)
system.mem_ctrl.dram.perBankRdBursts::8          3624                       # Per bank write bursts (Count)
system.mem_ctrl.dram.perBankRdBursts::9          3535                       # Per bank write bursts (Count)
system.mem_ctrl.dram.perBankRdBursts::10         3719                       # Per bank write bursts (Count)
system.mem_ctrl.dram.perBankRdBursts::11         3658                       # Per bank write bursts (Count)
system.mem_ctrl.dram.perBankRdBursts::12         3666                       # Per bank write bursts (Count)
system.mem_ctrl.dram.perBankRdBursts::13         3725                       # Per bank write bursts (Count)
system.mem_ctrl.dram.perBankRdBursts::14         3649                       # Per bank write bursts (Count)
system.mem_ctrl.dram.perBankRdBursts::15         3664                       # Per bank write bursts (Count)
system.mem_ctrl.dram.perBankWrBursts::0          1582                       # Per bank write bursts (Count)
system.mem_ctrl.dram.perBankWrBursts::1          1602                       # Per bank write bursts (Count)
system.mem_ctrl.dram.perBankWrBursts::2          1652                       # Per bank write bursts (Count)
system.mem_ctrl.dram.perBankWrBursts::3          1593                       # Per bank write bursts (Count)
system.mem_ctrl.dram.perBankWrBursts::4          1613                       # Per bank write bursts (Count)
system.mem_ctrl.dram.perBankWrBursts::5          1599                       # Per bank write bursts (Count)
system.mem_ctrl.dram.perBankWrBursts::6          1611                       # Per bank write bursts (Count)
system.mem_ctrl.dram.perBankWrBursts::7          1456                       # Per bank write bursts (Count)
system.mem_ctrl.dram.perBankWrBursts::8          1512                       # Per bank write bursts (Count)
system.mem_ctrl.dram.perBankWrBursts::9          1460                       # Per bank write bursts (Count)
system.mem_ctrl.dram.perBankWrBursts::10         1599                       # Per bank write bursts (Count)
system.mem_ctrl.dram.perBankWrBursts::11         1546                       # Per bank write bursts (Count)
system.mem_ctrl.dram.perBankWrBursts::12         1585                       # Per bank write bursts (Count)
system.mem_ctrl.dram.perBankWrBursts::13         1606                       # Per bank write bursts (Count)
system.mem_ctrl.dram.perBankWrBursts::14         1582                       # Per bank write bursts (Count)
system.mem_ctrl.dram.perBankWrBursts::15         1594                       # Per bank write bursts (Count)
system.mem_ctrl.dram.totQLat                441858000                       # Total ticks spent queuing (Tick)
system.mem_ctrl.dram.totBusLat              293310000                       # Total ticks spent in databus transfers (Tick)
system.mem_ctrl.dram.totMemAccLat          1541770500                       # Total ticks spent from burst creation until serviced by the DRAM (Tick)
system.mem_ctrl.dram.avgQLat                  7532.27                       # Average queueing delay per DRAM burst ((Tick/Count))
system.mem_ctrl.dram.avgBusLat                5000.00                       # Average bus latency per DRAM burst ((Tick/Count))
system.mem_ctrl.dram.avgMemAccLat            26282.27                       # Average memory access latency per DRAM burst ((Tick/Count))
system.mem_ctrl.dram.readRowHits                48004                       # Number of row buffer hits during reads (Count)
system.mem_ctrl.dram.writeRowHits               21332                       # Number of row buffer hits during writes (Count)
system.mem_ctrl.dram.readRowHitRate             81.83                       # Row buffer hit rate for reads (Ratio)
system.mem_ctrl.dram.writeRowHitRate            84.68                       # Row buffer hit rate for writes (Ratio)
system.mem_ctrl.dram.bytesPerActivate::samples        14517                       # Bytes accessed per row activation (Byte)
system.mem_ctrl.dram.bytesPerActivate::mean   369.676379                       # Bytes accessed per row activation (Byte)
system.mem_ctrl.dram.bytesPerActivate::gmean   249.377189                       # Bytes accessed per row activation (Byte)
system.mem_ctrl.dram.bytesPerActivate::stdev   316.447786                       # Bytes accessed per row activation (Byte)
system.mem_ctrl.dram.bytesPerActivate::0-127         3109     21.42%     21.42% # Bytes accessed per row activation (Byte)
system.mem_ctrl.dram.bytesPerActivate::128-255         2485     17.12%     38.53% # Bytes accessed per row activation (Byte)
system.mem_ctrl.dram.bytesPerActivate::256-383         4243     29.23%     67.76% # Bytes accessed per row activation (Byte)
system.mem_ctrl.dram.bytesPerActivate::384-511          925      6.37%     74.13% # Bytes accessed per row activation (Byte)
system.mem_ctrl.dram.bytesPerActivate::512-639          595      4.10%     78.23% # Bytes accessed per row activation (Byte)
system.mem_ctrl.dram.bytesPerActivate::640-767          299      2.06%     80.29% # Bytes accessed per row activation (Byte)
system.mem_ctrl.dram.bytesPerActivate::768-895          837      5.77%     86.06% # Bytes accessed per row activation (Byte)
system.mem_ctrl.dram.bytesPerActivate::896-1023          546      3.76%     89.82% # Bytes accessed per row activation (Byte)
system.mem_ctrl.dram.bytesPerActivate::1024-1151         1478     10.18%    100.00% # Bytes accessed per row activation (Byte)
system.mem_ctrl.dram.bytesPerActivate::total        14517                       # Bytes accessed per row activation (Byte)
system.mem_ctrl.dram.bytesRead                3754368                       # Total bytes read (Byte)
system.mem_ctrl.dram.bytesWritten             1612288                       # Total bytes written (Byte)
system.mem_ctrl.dram.avgRdBW                83.636419                       # Average DRAM read bandwidth in MiBytes/s ((Byte/Second))
system.mem_ctrl.dram.avgWrBW                35.917096                       # Average DRAM write bandwidth in MiBytes/s ((Byte/Second))
system.mem_ctrl.dram.peakBW                  12800.00                       # Theoretical peak bandwidth in MiByte/s ((Byte/Second))
system.mem_ctrl.dram.busUtil                     0.93                       # Data bus utilization in percentage (Ratio)
system.mem_ctrl.dram.busUtilRead                 0.65                       # Data bus utilization in percentage for reads (Ratio)
system.mem_ctrl.dram.busUtilWrite                0.28                       # Data bus utilization in percentage for writes (Ratio)
system.mem_ctrl.dram.pageHitRate                82.69                       # Row buffer hit rate, read and write combined (Ratio)
system.mem_ctrl.dram.power_state.pwrStateResidencyTicks::UNDEFINED  44889153000                       # Cumulative time (in ticks) in various power states (Tick)
system.mem_ctrl.dram.rank0.actEnergy         51693600                       # Energy for activate commands per rank (pJ) (Joule)
system.mem_ctrl.dram.rank0.preEnergy         27472005                       # Energy for precharge commands per rank (pJ) (Joule)
system.mem_ctrl.dram.rank0.readEnergy       210073080                       # Energy for read commands per rank (pJ) (Joule)
system.mem_ctrl.dram.rank0.writeEnergy       66335760                       # Energy for write commands per rank (pJ) (Joule)
system.mem_ctrl.dram.rank0.refreshEnergy 3543399600.000000                       # Energy for refresh commands per rank (pJ) (Joule)
system.mem_ctrl.dram.rank0.actBackEnergy  10845138060                       # Energy for active background per rank (pJ) (Joule)
system.mem_ctrl.dram.rank0.preBackEnergy   8104687200                       # Energy for precharge background per rank (pJ) (Joule)
system.mem_ctrl.dram.rank0.actPowerDownEnergy            0                       # Energy for active power-down per rank (pJ) (Joule)
system.mem_ctrl.dram.rank0.prePowerDownEnergy            0                       # Energy for precharge power-down per rank (pJ) (Joule)
system.mem_ctrl.dram.rank0.selfRefreshEnergy            0                       # Energy for self refresh per rank (pJ) (Joule)
system.mem_ctrl.dram.rank0.totalEnergy    22848799305                       # Total energy per rank (pJ) (Joule)
system.mem_ctrl.dram.rank0.averagePower    509.004910                       # Core power per rank (mW) (Watt)
system.mem_ctrl.dram.rank0.totalIdleTime            0                       # Total Idle time Per DRAM Rank (Tick)
system.mem_ctrl.dram.rank0.pwrStateTime::IDLE  20963834500                       # Time in different power states (Tick)
system.mem_ctrl.dram.rank0.pwrStateTime::REF   1498900000                       # Time in different power states (Tick)
system.mem_ctrl.dram.rank0.pwrStateTime::SREF            0                       # Time in different power states (Tick)
system.mem_ctrl.dram.rank0.pwrStateTime::PRE_PDN            0                       # Time in different power states (Tick)
system.mem_ctrl.dram.rank0.pwrStateTime::ACT  22426418500                       # Time in different power states (Tick)
system.mem_ctrl.dram.rank0.pwrStateTime::ACT_PDN            0                       # Time in different power states (Tick)
system.mem_ctrl.dram.rank1.actEnergy         51964920                       # Energy for activate commands per rank (pJ) (Joule)
system.mem_ctrl.dram.rank1.preEnergy         27620010                       # Energy for precharge commands per rank (pJ) (Joule)
system.mem_ctrl.dram.rank1.readEnergy       208773600                       # Energy for read commands per rank (pJ) (Joule)
system.mem_ctrl.dram.rank1.writeEnergy       65166480                       # Energy for write commands per rank (pJ) (Joule)
system.mem_ctrl.dram.rank1.refreshEnergy 3543399600.000000                       # Energy for refresh commands per rank (pJ) (Joule)
system.mem_ctrl.dram.rank1.actBackEnergy  10320122460                       # Energy for active background per rank (pJ) (Joule)
system.mem_ctrl.dram.rank1.preBackEnergy   8546805600                       # Energy for precharge background per rank (pJ) (Joule)
system.mem_ctrl.dram.rank1.actPowerDownEnergy            0                       # Energy for active power-down per rank (pJ) (Joule)
system.mem_ctrl.dram.rank1.prePowerDownEnergy            0                       # Energy for precharge power-down per rank (pJ) (Joule)
system.mem_ctrl.dram.rank1.selfRefreshEnergy            0                       # Energy for self refresh per rank (pJ) (Joule)
system.mem_ctrl.dram.rank1.totalEnergy    22763852670                       # Total energy per rank (pJ) (Joule)
system.mem_ctrl.dram.rank1.averagePower    507.112546                       # Core power per rank (mW) (Watt)
system.mem_ctrl.dram.rank1.totalIdleTime            0                       # Total Idle time Per DRAM Rank (Tick)
system.mem_ctrl.dram.rank1.pwrStateTime::IDLE  22118680500                       # Time in different power states (Tick)
system.mem_ctrl.dram.rank1.pwrStateTime::REF   1498900000                       # Time in different power states (Tick)
system.mem_ctrl.dram.rank1.pwrStateTime::SREF            0                       # Time in different power states (Tick)
system.mem_ctrl.dram.rank1.pwrStateTime::PRE_PDN            0                       # Time in different power states (Tick)
system.mem_ctrl.dram.rank1.pwrStateTime::ACT  21271572500                       # Time in different power states (Tick)
system.mem_ctrl.dram.rank1.pwrStateTime::ACT_PDN            0                       # Time in different power states (Tick)
system.mem_ctrl.power_state.pwrStateResidencyTicks::UNDEFINED  44889153000                       # Cumulative time (in ticks) in various power states (Tick)
system.membus.transDist::ReadResp               11408                       # Transaction distribution (Count)
system.membus.transDist::WritebackDirty         25221                       # Transaction distribution (Count)
system.membus.transDist::CleanEvict               217                       # Transaction distribution (Count)
system.membus.transDist::ReadExReq              47256                       # Transaction distribution (Count)
system.membus.transDist::ReadExResp             47256                       # Transaction distribution (Count)
system.membus.transDist::ReadSharedReq          11408                       # Transaction distribution (Count)
system.membus.pktCount_system.l2cache.mem_side_port::system.mem_ctrl.port       142766                       # Packet count per connected requestor and responder (Count)
system.membus.pktCount_system.l2cache.mem_side_port::total       142766                       # Packet count per connected requestor and responder (Count)
system.membus.pktCount::total                  142766                       # Packet count per connected requestor and responder (Count)
system.membus.pktSize_system.l2cache.mem_side_port::system.mem_ctrl.port      5368640                       # Cumulative packet size per connected requestor and responder (Byte)
system.membus.pktSize_system.l2cache.mem_side_port::total      5368640                       # Cumulative packet size per connected requestor and responder (Byte)
system.membus.pktSize::total                  5368640                       # Cumulative packet size per connected requestor and responder (Byte)
system.membus.snoops                                0                       # Total snoops (Count)
system.membus.snoopTraffic                          0                       # Total snoop traffic (Byte)
system.membus.snoopFanout::samples              58664                       # Request fanout histogram (Count)
system.membus.snoopFanout::mean                     0                       # Request fanout histogram (Count)
system.membus.snoopFanout::stdev                    0                       # Request fanout histogram (Count)
system.membus.snoopFanout::underflows               0      0.00%      0.00% # Request fanout histogram (Count)
system.membus.snoopFanout::0                    58664    100.00%    100.00% # Request fanout histogram (Count)
system.membus.snoopFanout::1                        0      0.00%    100.00% # Request fanout histogram (Count)
system.membus.snoopFanout::overflows                0      0.00%    100.00% # Request fanout histogram (Count)
system.membus.snoopFanout::min_value                0                       # Request fanout histogram (Count)
system.membus.snoopFanout::max_value                0                       # Request fanout histogram (Count)
system.membus.snoopFanout::total                58664                       # Request fanout histogram (Count)
system.membus.power_state.pwrStateResidencyTicks::UNDEFINED  44889153000                       # Cumulative time (in ticks) in various power states (Tick)
system.membus.reqLayer2.occupancy           184986000                       # Layer occupancy (ticks) (Tick)
system.membus.reqLayer2.utilization               0.0                       # Layer utilization (Ratio)
system.membus.respLayer0.occupancy          310313000                       # Layer occupancy (ticks) (Tick)
system.membus.respLayer0.utilization              0.0                       # Layer utilization (Ratio)
system.membus.snoop_filter.totRequests          84102                       # Total number of requests made to the snoop filter. (Count)
system.membus.snoop_filter.hitSingleRequests        25438                       # Number of requests hitting in the snoop filter with a single holder of the requested data. (Count)
system.membus.snoop_filter.hitMultiRequests            0                       # Number of requests hitting in the snoop filter with multiple (>1) holders of the requested data. (Count)
system.membus.snoop_filter.totSnoops                0                       # Total number of snoops made to the snoop filter. (Count)
system.membus.snoop_filter.hitSingleSnoops            0                       # Number of snoops hitting in the snoop filter with a single holder of the requested data. (Count)
system.membus.snoop_filter.hitMultiSnoops            0                       # Number of snoops hitting in the snoop filter with multiple (>1) holders of the requested data. (Count)
system.workload.inst.arm                            0                       # number of arm instructions executed (Count)
system.workload.inst.quiesce                        0                       # number of quiesce instructions executed (Count)

---------- End Simulation Statistics   ----------
