# 128 LSQ_ENTRIES
./runall.sh 128 128 4 4 2 2
Global frequency set at 1000000000000 ticks per second
warn: No dot file generated. Please install pydot to generate the dot file and pdf.
build/X86/base/remote_gdb.cc:381: warn: Sockets disabled, not accepting gdb connections
gem5 Simulator System.  https://www.gem5.org
gem5 is copyrighted software; use the --copyright option for details.

gem5 version 22.0.0.2
gem5 compiled Dec 19 2023 11:16:18
gem5 started Dec 20 2023 14:49:36
gem5 executing on CPVM, pid 46442
command line: ../build/X86/gem5.opt -d ./benchmark1/m5out_LSQ:128._ROB:128._IFU:4._CFU:4._FFU:2._LSFU:2 ../configs/cs425_pa2/cs425_pa2.py -c ./benchmark1/bin/benchmark -o ./benchmark1/data/input.program -I 50000000 --cpu-type=O3CPU --l1i_size=64kB --l1i_assoc=4 --l1d_size=64kB --l1d_assoc=4 --l2_size=256kB --l2_assoc=8 --bp-type=TournamentBP --btb_entries=1024 --LSQ_Entries=128 --numROB_Entries=128 --num_int_FUs=4 --num_complex_FUs=4 --num_ls_FUs=2 --num_float_FUs=2

info: Standard input is not a terminal, disabling listeners.
/home/chris/HY425/prog_assignment2/gem5/hy425
Beginning simulation!
build/X86/sim/simulate.cc:194: info: Entering event queue @ 0.  Starting simulation...
build/X86/sim/syscall_emul.hh:1015: warn: readlink() called on '/proc/self/exe' may yield unexpected results in various settings.
      Returning '/home/chris/HY425/prog_assignment2/gem5/hy425/benchmark1/bin/benchmark'
build/X86/sim/mem_state.cc:443: info: Increasing stack size by one page.
spec_init
Loading Input Data
Duplicating 8070616 bytes
build/X86/arch/x86/generated/exec-ns.cc.inc:27: warn: instruction 'prefetch_nta' unimplemented
build/X86/arch/x86/generated/exec-ns.cc.inc:27: warn: instruction 'prefetch_nta' unimplemented
build/X86/arch/generic/debugfaults.hh:145: warn: MOVNTI: Ignoring non-temporal hint, modeling as cacheable!
Duplicating 16141232 bytes
Duplicating 32282464 bytes
Duplicating 2543936 bytes
Input data 67108864 bytes in length
Compressing Input Data, level 5
Exiting @ tick 371545523000 because a thread reached the max instruction count

real	50m36,712s
user	50m34,747s
sys	0m1,625s
-------------------------------------------------------
Global frequency set at 1000000000000 ticks per second
warn: No dot file generated. Please install pydot to generate the dot file and pdf.
build/X86/base/remote_gdb.cc:381: warn: Sockets disabled, not accepting gdb connections
gem5 Simulator System.  https://www.gem5.org
gem5 is copyrighted software; use the --copyright option for details.

gem5 version 22.0.0.2
gem5 compiled Dec 19 2023 11:16:18
gem5 started Dec 20 2023 15:40:13
gem5 executing on CPVM, pid 46501
command line: ../build/X86/gem5.opt -d ./benchmark2/m5out_LSQ:128._ROB:128._IFU:4._CFU:4._FFU:2._LSFU:2 ../configs/cs425_pa2/cs425_pa2.py -c ./benchmark2/bin/benchmark -o ./benchmark2/data/inp.in -I 50000000 --cpu-type=O3CPU --l1i_size=64kB --l1i_assoc=4 --l1d_size=64kB --l1d_assoc=4 --l2_size=256kB --l2_assoc=8 --bp-type=TournamentBP --btb_entries=1024 --LSQ_Entries=128 --numROB_Entries=128 --num_int_FUs=4 --num_complex_FUs=4 --num_ls_FUs=2 --num_float_FUs=2

info: Standard input is not a terminal, disabling listeners.
/home/chris/HY425/prog_assignment2/gem5/hy425
Beginning simulation!
build/X86/sim/simulate.cc:194: info: Entering event queue @ 0.  Starting simulation...
build/X86/sim/syscall_emul.hh:1015: warn: readlink() called on '/proc/self/exe' may yield unexpected results in various settings.
      Returning '/home/chris/HY425/prog_assignment2/gem5/hy425/benchmark2/bin/benchmark'
build/X86/sim/mem_state.cc:443: info: Increasing stack size by one page.

MCF SPEC CPU2006 version 1.10
Copyright (c) 1998-2000 Zuse Institut Berlin (ZIB)
Copyright (c) 2000-2002 Andreas Loebel & ZIB
Copyright (c) 2003-2005 Andreas Loebel

Exiting @ tick 30927798000 because a thread reached the max instruction count

real	4m33,768s
user	4m33,620s
sys	0m0,108s
-------------------------------------------------------
Global frequency set at 1000000000000 ticks per second
warn: No dot file generated. Please install pydot to generate the dot file and pdf.
build/X86/base/remote_gdb.cc:381: warn: Sockets disabled, not accepting gdb connections
gem5 Simulator System.  https://www.gem5.org
gem5 is copyrighted software; use the --copyright option for details.

gem5 version 22.0.0.2
gem5 compiled Dec 19 2023 11:16:18
gem5 started Dec 20 2023 15:44:46
gem5 executing on CPVM, pid 46503
command line: ../build/X86/gem5.opt -d ./benchmark3/m5out_LSQ:128._ROB:128._IFU:4._CFU:4._FFU:2._LSFU:2 ../configs/cs425_pa2/cs425_pa2.py -c ./benchmark3/bin/benchmark -o ./benchmark3/data/bombesin.hmm.new -I 50000000 --cpu-type=O3CPU --l1i_size=64kB --l1i_assoc=4 --l1d_size=64kB --l1d_assoc=4 --l2_size=256kB --l2_assoc=8 --bp-type=TournamentBP --btb_entries=1024 --LSQ_Entries=128 --numROB_Entries=128 --num_int_FUs=4 --num_complex_FUs=4 --num_ls_FUs=2 --num_float_FUs=2

info: Standard input is not a terminal, disabling listeners.
/home/chris/HY425/prog_assignment2/gem5/hy425
Beginning simulation!
build/X86/sim/simulate.cc:194: info: Entering event queue @ 0.  Starting simulation...
build/X86/sim/syscall_emul.hh:1015: warn: readlink() called on '/proc/self/exe' may yield unexpected results in various settings.
      Returning '/home/chris/HY425/prog_assignment2/gem5/hy425/benchmark3/bin/benchmark'
build/X86/sim/mem_state.cc:443: info: Increasing stack size by one page.
hmmcalibrate -- calibrate HMM search statistics
HMMER 2.3 (May 2003)
Copyright (C) 1992-2003 HHMI/Washington University School of Medicine
Freely distributed under the GNU General Public License (GPL)
- - - - - - - - - - - - - - - - - - - - - - - - - - - - - - - - - - - -
HMM file:                 ./benchmark3/data/bombesin.hmm.new
Length distribution mean: 325
Length distribution s.d.: 200
Number of samples:        5000
random seed:              1000000000
histogram(s) saved to:    [not saved]
- - - - - - - - - - - - - - - - - - - - - - - - - - - - - - - -

Exiting @ tick 69032297000 because a thread reached the max instruction count

real	5m19,469s
user	5m19,357s
sys	0m0,044s
-------------------------------------------------------
Global frequency set at 1000000000000 ticks per second
warn: No dot file generated. Please install pydot to generate the dot file and pdf.
build/X86/base/remote_gdb.cc:381: warn: Sockets disabled, not accepting gdb connections
gem5 Simulator System.  https://www.gem5.org
gem5 is copyrighted software; use the --copyright option for details.

gem5 version 22.0.0.2
gem5 compiled Dec 19 2023 11:16:18
gem5 started Dec 20 2023 15:50:06
gem5 executing on CPVM, pid 46504
command line: ../build/X86/gem5.opt -d ./benchmark4/m5out_LSQ:128._ROB:128._IFU:4._CFU:4._FFU:2._LSFU:2 ../configs/cs425_pa2/cs425_pa2.py -c ./benchmark4/bin/benchmark -o ./benchmark4/data/test.txt -I 50000000 --cpu-type=O3CPU --l1i_size=64kB --l1i_assoc=4 --l1d_size=64kB --l1d_assoc=4 --l2_size=256kB --l2_assoc=8 --bp-type=TournamentBP --btb_entries=1024 --LSQ_Entries=128 --numROB_Entries=128 --num_int_FUs=4 --num_complex_FUs=4 --num_ls_FUs=2 --num_float_FUs=2

info: Standard input is not a terminal, disabling listeners.
/home/chris/HY425/prog_assignment2/gem5/hy425
Beginning simulation!
build/X86/sim/simulate.cc:194: info: Entering event queue @ 0.  Starting simulation...
build/X86/sim/syscall_emul.hh:1015: warn: readlink() called on '/proc/self/exe' may yield unexpected results in various settings.
      Returning '/home/chris/HY425/prog_assignment2/gem5/hy425/benchmark4/bin/benchmark'
build/X86/sim/mem_state.cc:443: info: Increasing stack size by one page.
build/X86/sim/mem_state.cc:443: info: Increasing stack size by one page.
build/X86/sim/mem_state.cc:443: info: Increasing stack size by one page.
build/X86/sim/mem_state.cc:443: info: Increasing stack size by one page.
build/X86/sim/mem_state.cc:443: info: Increasing stack size by one page.
build/X86/sim/mem_state.cc:443: info: Increasing stack size by one page.

Sjeng version SPEC 1.0, Copyright (C) 2000-2005 Gian-Carlo Pascutto

SPEC Workload

build/X86/sim/mem_state.cc:443: info: Increasing stack size by one page.
build/X86/sim/mem_state.cc:443: info: Increasing stack size by one page.
build/X86/sim/mem_state.cc:443: info: Increasing stack size by one page.
  +----+----+----+----+----+----+----+----+
8 | *R |    |    |    | *K | *B |    | *R |
  +----+----+----+----+----+----+----+----+
7 |    |    |    | *N |    | *P | *P |    |
  +----+----+----+----+----+----+----+----+
6 | *P |    |    |    |    |    |    | *P |
  +----+----+----+----+----+----+----+----+
5 |    |    | *P |  P | *P |    |    | *Q |
  +----+----+----+----+----+----+----+----+
4 |  P | *P |    |    |  N |    |    |    |
  +----+----+----+----+----+----+----+----+
3 |    |    |    |  B |    |    |  P |  P |
  +----+----+----+----+----+----+----+----+
2 |    |  P |  Q |    |    |  P |    |    |
  +----+----+----+----+----+----+----+----+
1 |  R |    |    |    |  K |    |    |  R |
  +----+----+----+----+----+----+----+----+

     a    b    c    d    e    f    g    h

EPD: r3kb1r/3n1pp1/p6p/2pPp2q/Pp2N3/3B2PP/1PQ2P2/R3K2R w KQkq - bm d6; id "LCT2-POS-01";

Searching to 10 ply
Opening phase.
build/X86/sim/mem_state.cc:443: info: Increasing stack size by one page.
build/X86/sim/mem_state.cc:443: info: Increasing stack size by one page.
build/X86/sim/mem_state.cc:443: info: Increasing stack size by one page.
Time for move : 1000000
Exiting @ tick 398176892000 because a thread reached the max instruction count

real	15m4,472s
user	15m3,140s
sys	0m0,988s
-------------------------------------------------------
Global frequency set at 1000000000000 ticks per second
warn: No dot file generated. Please install pydot to generate the dot file and pdf.
build/X86/base/remote_gdb.cc:381: warn: Sockets disabled, not accepting gdb connections
gem5 Simulator System.  https://www.gem5.org
gem5 is copyrighted software; use the --copyright option for details.

gem5 version 22.0.0.2
gem5 compiled Dec 19 2023 11:16:18
gem5 started Dec 20 2023 16:05:10
gem5 executing on CPVM, pid 46509
command line: ../build/X86/gem5.opt -d ./benchmark5/m5out_LSQ:128._ROB:128._IFU:4._CFU:4._FFU:2._LSFU:2 ../configs/cs425_pa2/cs425_pa2.py -c ./benchmark5/bin/benchmark -o '20 reference.dat 0 1 ./benchmark5/data/100_100_130_cf_a.of' -I 50000000 --cpu-type=O3CPU --l1i_size=64kB --l1i_assoc=4 --l1d_size=64kB --l1d_assoc=4 --l2_size=256kB --l2_assoc=8 --bp-type=TournamentBP --btb_entries=1024 --LSQ_Entries=128 --numROB_Entries=128 --num_int_FUs=4 --num_complex_FUs=4 --num_ls_FUs=2 --num_float_FUs=2

info: Standard input is not a terminal, disabling listeners.
/home/chris/HY425/prog_assignment2/gem5/hy425
Beginning simulation!
build/X86/sim/simulate.cc:194: info: Entering event queue @ 0.  Starting simulation...
build/X86/sim/syscall_emul.hh:1015: warn: readlink() called on '/proc/self/exe' may yield unexpected results in various settings.
      Returning '/home/chris/HY425/prog_assignment2/gem5/hy425/benchmark5/bin/benchmark'
build/X86/sim/mem_state.cc:443: info: Increasing stack size by one page.
MAIN_printInfo:
	grid size      : 100 x 100 x 130 = 1.30 * 10^6 Cells
	nTimeSteps     : 20
	result file    : reference.dat
	action         : nothing
	simulation type: channel flow
	obstacle file  : ./benchmark5/data/100_100_130_cf_a.of

Exiting @ tick 38922066000 because a thread reached the max instruction count

real	5m23,561s
user	5m23,400s
sys	0m0,120s
-------------------------------------------------------
./runall.sh 128 128 4 4 2 4
Global frequency set at 1000000000000 ticks per second
warn: No dot file generated. Please install pydot to generate the dot file and pdf.
build/X86/base/remote_gdb.cc:381: warn: Sockets disabled, not accepting gdb connections
gem5 Simulator System.  https://www.gem5.org
gem5 is copyrighted software; use the --copyright option for details.

gem5 version 22.0.0.2
gem5 compiled Dec 19 2023 11:16:18
gem5 started Dec 20 2023 16:10:34
gem5 executing on CPVM, pid 46512
command line: ../build/X86/gem5.opt -d ./benchmark1/m5out_LSQ:128._ROB:128._IFU:4._CFU:4._FFU:2._LSFU:4 ../configs/cs425_pa2/cs425_pa2.py -c ./benchmark1/bin/benchmark -o ./benchmark1/data/input.program -I 50000000 --cpu-type=O3CPU --l1i_size=64kB --l1i_assoc=4 --l1d_size=64kB --l1d_assoc=4 --l2_size=256kB --l2_assoc=8 --bp-type=TournamentBP --btb_entries=1024 --LSQ_Entries=128 --numROB_Entries=128 --num_int_FUs=4 --num_complex_FUs=4 --num_ls_FUs=4 --num_float_FUs=2

info: Standard input is not a terminal, disabling listeners.
/home/chris/HY425/prog_assignment2/gem5/hy425
Beginning simulation!
build/X86/sim/simulate.cc:194: info: Entering event queue @ 0.  Starting simulation...
build/X86/sim/syscall_emul.hh:1015: warn: readlink() called on '/proc/self/exe' may yield unexpected results in various settings.
      Returning '/home/chris/HY425/prog_assignment2/gem5/hy425/benchmark1/bin/benchmark'
build/X86/sim/mem_state.cc:443: info: Increasing stack size by one page.
spec_init
Loading Input Data
Duplicating 8070616 bytes
build/X86/arch/x86/generated/exec-ns.cc.inc:27: warn: instruction 'prefetch_nta' unimplemented
build/X86/arch/x86/generated/exec-ns.cc.inc:27: warn: instruction 'prefetch_nta' unimplemented
build/X86/arch/generic/debugfaults.hh:145: warn: MOVNTI: Ignoring non-temporal hint, modeling as cacheable!
Duplicating 16141232 bytes
Duplicating 32282464 bytes
Duplicating 2543936 bytes
Input data 67108864 bytes in length
Compressing Input Data, level 5
Exiting @ tick 367958436000 because a thread reached the max instruction count

real	49m6,927s
user	49m5,531s
sys	0m1,159s
-------------------------------------------------------
Global frequency set at 1000000000000 ticks per second
warn: No dot file generated. Please install pydot to generate the dot file and pdf.
build/X86/base/remote_gdb.cc:381: warn: Sockets disabled, not accepting gdb connections
gem5 Simulator System.  https://www.gem5.org
gem5 is copyrighted software; use the --copyright option for details.

gem5 version 22.0.0.2
gem5 compiled Dec 19 2023 11:16:18
gem5 started Dec 20 2023 16:59:41
gem5 executing on CPVM, pid 46531
command line: ../build/X86/gem5.opt -d ./benchmark2/m5out_LSQ:128._ROB:128._IFU:4._CFU:4._FFU:2._LSFU:4 ../configs/cs425_pa2/cs425_pa2.py -c ./benchmark2/bin/benchmark -o ./benchmark2/data/inp.in -I 50000000 --cpu-type=O3CPU --l1i_size=64kB --l1i_assoc=4 --l1d_size=64kB --l1d_assoc=4 --l2_size=256kB --l2_assoc=8 --bp-type=TournamentBP --btb_entries=1024 --LSQ_Entries=128 --numROB_Entries=128 --num_int_FUs=4 --num_complex_FUs=4 --num_ls_FUs=4 --num_float_FUs=2

info: Standard input is not a terminal, disabling listeners.
/home/chris/HY425/prog_assignment2/gem5/hy425
Beginning simulation!
build/X86/sim/simulate.cc:194: info: Entering event queue @ 0.  Starting simulation...
build/X86/sim/syscall_emul.hh:1015: warn: readlink() called on '/proc/self/exe' may yield unexpected results in various settings.
      Returning '/home/chris/HY425/prog_assignment2/gem5/hy425/benchmark2/bin/benchmark'
build/X86/sim/mem_state.cc:443: info: Increasing stack size by one page.

MCF SPEC CPU2006 version 1.10
Copyright (c) 1998-2000 Zuse Institut Berlin (ZIB)
Copyright (c) 2000-2002 Andreas Loebel & ZIB
Copyright (c) 2003-2005 Andreas Loebel

Exiting @ tick 30976212000 because a thread reached the max instruction count

real	4m37,010s
user	4m36,762s
sys	0m0,208s
-------------------------------------------------------
Global frequency set at 1000000000000 ticks per second
warn: No dot file generated. Please install pydot to generate the dot file and pdf.
build/X86/base/remote_gdb.cc:381: warn: Sockets disabled, not accepting gdb connections
gem5 Simulator System.  https://www.gem5.org
gem5 is copyrighted software; use the --copyright option for details.

gem5 version 22.0.0.2
gem5 compiled Dec 19 2023 11:16:18
gem5 started Dec 20 2023 17:04:18
gem5 executing on CPVM, pid 46534
command line: ../build/X86/gem5.opt -d ./benchmark3/m5out_LSQ:128._ROB:128._IFU:4._CFU:4._FFU:2._LSFU:4 ../configs/cs425_pa2/cs425_pa2.py -c ./benchmark3/bin/benchmark -o ./benchmark3/data/bombesin.hmm.new -I 50000000 --cpu-type=O3CPU --l1i_size=64kB --l1i_assoc=4 --l1d_size=64kB --l1d_assoc=4 --l2_size=256kB --l2_assoc=8 --bp-type=TournamentBP --btb_entries=1024 --LSQ_Entries=128 --numROB_Entries=128 --num_int_FUs=4 --num_complex_FUs=4 --num_ls_FUs=4 --num_float_FUs=2

info: Standard input is not a terminal, disabling listeners.
/home/chris/HY425/prog_assignment2/gem5/hy425
Beginning simulation!
build/X86/sim/simulate.cc:194: info: Entering event queue @ 0.  Starting simulation...
build/X86/sim/syscall_emul.hh:1015: warn: readlink() called on '/proc/self/exe' may yield unexpected results in various settings.
      Returning '/home/chris/HY425/prog_assignment2/gem5/hy425/benchmark3/bin/benchmark'
build/X86/sim/mem_state.cc:443: info: Increasing stack size by one page.
hmmcalibrate -- calibrate HMM search statistics
HMMER 2.3 (May 2003)
Copyright (C) 1992-2003 HHMI/Washington University School of Medicine
Freely distributed under the GNU General Public License (GPL)
- - - - - - - - - - - - - - - - - - - - - - - - - - - - - - - - - - - -
HMM file:                 ./benchmark3/data/bombesin.hmm.new
Length distribution mean: 325
Length distribution s.d.: 200
Number of samples:        5000
random seed:              1000000000
histogram(s) saved to:    [not saved]
- - - - - - - - - - - - - - - - - - - - - - - - - - - - - - - -

Exiting @ tick 68108516000 because a thread reached the max instruction count

real	5m13,733s
user	5m13,586s
sys	0m0,044s
-------------------------------------------------------
Global frequency set at 1000000000000 ticks per second
warn: No dot file generated. Please install pydot to generate the dot file and pdf.
build/X86/base/remote_gdb.cc:381: warn: Sockets disabled, not accepting gdb connections
gem5 Simulator System.  https://www.gem5.org
gem5 is copyrighted software; use the --copyright option for details.

gem5 version 22.0.0.2
gem5 compiled Dec 19 2023 11:16:18
gem5 started Dec 20 2023 17:09:32
gem5 executing on CPVM, pid 46535
command line: ../build/X86/gem5.opt -d ./benchmark4/m5out_LSQ:128._ROB:128._IFU:4._CFU:4._FFU:2._LSFU:4 ../configs/cs425_pa2/cs425_pa2.py -c ./benchmark4/bin/benchmark -o ./benchmark4/data/test.txt -I 50000000 --cpu-type=O3CPU --l1i_size=64kB --l1i_assoc=4 --l1d_size=64kB --l1d_assoc=4 --l2_size=256kB --l2_assoc=8 --bp-type=TournamentBP --btb_entries=1024 --LSQ_Entries=128 --numROB_Entries=128 --num_int_FUs=4 --num_complex_FUs=4 --num_ls_FUs=4 --num_float_FUs=2

info: Standard input is not a terminal, disabling listeners.
/home/chris/HY425/prog_assignment2/gem5/hy425
Beginning simulation!
build/X86/sim/simulate.cc:194: info: Entering event queue @ 0.  Starting simulation...
build/X86/sim/syscall_emul.hh:1015: warn: readlink() called on '/proc/self/exe' may yield unexpected results in various settings.
      Returning '/home/chris/HY425/prog_assignment2/gem5/hy425/benchmark4/bin/benchmark'
build/X86/sim/mem_state.cc:443: info: Increasing stack size by one page.
build/X86/sim/mem_state.cc:443: info: Increasing stack size by one page.
build/X86/sim/mem_state.cc:443: info: Increasing stack size by one page.
build/X86/sim/mem_state.cc:443: info: Increasing stack size by one page.
build/X86/sim/mem_state.cc:443: info: Increasing stack size by one page.
build/X86/sim/mem_state.cc:443: info: Increasing stack size by one page.

Sjeng version SPEC 1.0, Copyright (C) 2000-2005 Gian-Carlo Pascutto

SPEC Workload

build/X86/sim/mem_state.cc:443: info: Increasing stack size by one page.
build/X86/sim/mem_state.cc:443: info: Increasing stack size by one page.
build/X86/sim/mem_state.cc:443: info: Increasing stack size by one page.
  +----+----+----+----+----+----+----+----+
8 | *R |    |    |    | *K | *B |    | *R |
  +----+----+----+----+----+----+----+----+
7 |    |    |    | *N |    | *P | *P |    |
  +----+----+----+----+----+----+----+----+
6 | *P |    |    |    |    |    |    | *P |
  +----+----+----+----+----+----+----+----+
5 |    |    | *P |  P | *P |    |    | *Q |
  +----+----+----+----+----+----+----+----+
4 |  P | *P |    |    |  N |    |    |    |
  +----+----+----+----+----+----+----+----+
3 |    |    |    |  B |    |    |  P |  P |
  +----+----+----+----+----+----+----+----+
2 |    |  P |  Q |    |    |  P |    |    |
  +----+----+----+----+----+----+----+----+
1 |  R |    |    |    |  K |    |    |  R |
  +----+----+----+----+----+----+----+----+

     a    b    c    d    e    f    g    h

EPD: r3kb1r/3n1pp1/p6p/2pPp2q/Pp2N3/3B2PP/1PQ2P2/R3K2R w KQkq - bm d6; id "LCT2-POS-01";

Searching to 10 ply
Opening phase.
build/X86/sim/mem_state.cc:443: info: Increasing stack size by one page.
build/X86/sim/mem_state.cc:443: info: Increasing stack size by one page.
build/X86/sim/mem_state.cc:443: info: Increasing stack size by one page.
Time for move : 1000000
Exiting @ tick 396409634000 because a thread reached the max instruction count

real	15m37,431s
user	15m36,326s
sys	0m0,748s
-------------------------------------------------------
Global frequency set at 1000000000000 ticks per second
warn: No dot file generated. Please install pydot to generate the dot file and pdf.
build/X86/base/remote_gdb.cc:381: warn: Sockets disabled, not accepting gdb connections
gem5 Simulator System.  https://www.gem5.org
gem5 is copyrighted software; use the --copyright option for details.

gem5 version 22.0.0.2
gem5 compiled Dec 19 2023 11:16:18
gem5 started Dec 20 2023 17:25:09
gem5 executing on CPVM, pid 46545
command line: ../build/X86/gem5.opt -d ./benchmark5/m5out_LSQ:128._ROB:128._IFU:4._CFU:4._FFU:2._LSFU:4 ../configs/cs425_pa2/cs425_pa2.py -c ./benchmark5/bin/benchmark -o '20 reference.dat 0 1 ./benchmark5/data/100_100_130_cf_a.of' -I 50000000 --cpu-type=O3CPU --l1i_size=64kB --l1i_assoc=4 --l1d_size=64kB --l1d_assoc=4 --l2_size=256kB --l2_assoc=8 --bp-type=TournamentBP --btb_entries=1024 --LSQ_Entries=128 --numROB_Entries=128 --num_int_FUs=4 --num_complex_FUs=4 --num_ls_FUs=4 --num_float_FUs=2

info: Standard input is not a terminal, disabling listeners.
/home/chris/HY425/prog_assignment2/gem5/hy425
Beginning simulation!
build/X86/sim/simulate.cc:194: info: Entering event queue @ 0.  Starting simulation...
build/X86/sim/syscall_emul.hh:1015: warn: readlink() called on '/proc/self/exe' may yield unexpected results in various settings.
      Returning '/home/chris/HY425/prog_assignment2/gem5/hy425/benchmark5/bin/benchmark'
build/X86/sim/mem_state.cc:443: info: Increasing stack size by one page.
MAIN_printInfo:
	grid size      : 100 x 100 x 130 = 1.30 * 10^6 Cells
	nTimeSteps     : 20
	result file    : reference.dat
	action         : nothing
	simulation type: channel flow
	obstacle file  : ./benchmark5/data/100_100_130_cf_a.of

Exiting @ tick 39197117000 because a thread reached the max instruction count

real	5m10,992s
user	5m10,666s
sys	0m0,271s
-------------------------------------------------------
# 4 FUFP_NUM
./runall.sh 128 128 4 4 4 2
Global frequency set at 1000000000000 ticks per second
warn: No dot file generated. Please install pydot to generate the dot file and pdf.
build/X86/base/remote_gdb.cc:381: warn: Sockets disabled, not accepting gdb connections
gem5 Simulator System.  https://www.gem5.org
gem5 is copyrighted software; use the --copyright option for details.

gem5 version 22.0.0.2
gem5 compiled Dec 19 2023 11:16:18
gem5 started Dec 20 2023 17:30:20
gem5 executing on CPVM, pid 46566
command line: ../build/X86/gem5.opt -d ./benchmark1/m5out_LSQ:128._ROB:128._IFU:4._CFU:4._FFU:4._LSFU:2 ../configs/cs425_pa2/cs425_pa2.py -c ./benchmark1/bin/benchmark -o ./benchmark1/data/input.program -I 50000000 --cpu-type=O3CPU --l1i_size=64kB --l1i_assoc=4 --l1d_size=64kB --l1d_assoc=4 --l2_size=256kB --l2_assoc=8 --bp-type=TournamentBP --btb_entries=1024 --LSQ_Entries=128 --numROB_Entries=128 --num_int_FUs=4 --num_complex_FUs=4 --num_ls_FUs=2 --num_float_FUs=4

info: Standard input is not a terminal, disabling listeners.
/home/chris/HY425/prog_assignment2/gem5/hy425
Beginning simulation!
build/X86/sim/simulate.cc:194: info: Entering event queue @ 0.  Starting simulation...
build/X86/sim/syscall_emul.hh:1015: warn: readlink() called on '/proc/self/exe' may yield unexpected results in various settings.
      Returning '/home/chris/HY425/prog_assignment2/gem5/hy425/benchmark1/bin/benchmark'
build/X86/sim/mem_state.cc:443: info: Increasing stack size by one page.
spec_init
Loading Input Data
Duplicating 8070616 bytes
build/X86/arch/x86/generated/exec-ns.cc.inc:27: warn: instruction 'prefetch_nta' unimplemented
build/X86/arch/x86/generated/exec-ns.cc.inc:27: warn: instruction 'prefetch_nta' unimplemented
build/X86/arch/generic/debugfaults.hh:145: warn: MOVNTI: Ignoring non-temporal hint, modeling as cacheable!
Duplicating 16141232 bytes
Duplicating 32282464 bytes
Duplicating 2543936 bytes
Input data 67108864 bytes in length
Compressing Input Data, level 5
Exiting @ tick 371545523000 because a thread reached the max instruction count

real	50m30,304s
user	50m29,562s
sys	0m0,300s
-------------------------------------------------------
Global frequency set at 1000000000000 ticks per second
warn: No dot file generated. Please install pydot to generate the dot file and pdf.
build/X86/base/remote_gdb.cc:381: warn: Sockets disabled, not accepting gdb connections
gem5 Simulator System.  https://www.gem5.org
gem5 is copyrighted software; use the --copyright option for details.

gem5 version 22.0.0.2
gem5 compiled Dec 19 2023 11:16:18
gem5 started Dec 20 2023 18:20:50
gem5 executing on CPVM, pid 46581
command line: ../build/X86/gem5.opt -d ./benchmark2/m5out_LSQ:128._ROB:128._IFU:4._CFU:4._FFU:4._LSFU:2 ../configs/cs425_pa2/cs425_pa2.py -c ./benchmark2/bin/benchmark -o ./benchmark2/data/inp.in -I 50000000 --cpu-type=O3CPU --l1i_size=64kB --l1i_assoc=4 --l1d_size=64kB --l1d_assoc=4 --l2_size=256kB --l2_assoc=8 --bp-type=TournamentBP --btb_entries=1024 --LSQ_Entries=128 --numROB_Entries=128 --num_int_FUs=4 --num_complex_FUs=4 --num_ls_FUs=2 --num_float_FUs=4

info: Standard input is not a terminal, disabling listeners.
/home/chris/HY425/prog_assignment2/gem5/hy425
Beginning simulation!
build/X86/sim/simulate.cc:194: info: Entering event queue @ 0.  Starting simulation...
build/X86/sim/syscall_emul.hh:1015: warn: readlink() called on '/proc/self/exe' may yield unexpected results in various settings.
      Returning '/home/chris/HY425/prog_assignment2/gem5/hy425/benchmark2/bin/benchmark'
build/X86/sim/mem_state.cc:443: info: Increasing stack size by one page.

MCF SPEC CPU2006 version 1.10
Copyright (c) 1998-2000 Zuse Institut Berlin (ZIB)
Copyright (c) 2000-2002 Andreas Loebel & ZIB
Copyright (c) 2003-2005 Andreas Loebel

Exiting @ tick 30916249000 because a thread reached the max instruction count

real	4m34,174s
user	4m34,045s
sys	0m0,084s
-------------------------------------------------------
Global frequency set at 1000000000000 ticks per second
warn: No dot file generated. Please install pydot to generate the dot file and pdf.
build/X86/base/remote_gdb.cc:381: warn: Sockets disabled, not accepting gdb connections
gem5 Simulator System.  https://www.gem5.org
gem5 is copyrighted software; use the --copyright option for details.

gem5 version 22.0.0.2
gem5 compiled Dec 19 2023 11:16:18
gem5 started Dec 20 2023 18:25:24
gem5 executing on CPVM, pid 46584
command line: ../build/X86/gem5.opt -d ./benchmark3/m5out_LSQ:128._ROB:128._IFU:4._CFU:4._FFU:4._LSFU:2 ../configs/cs425_pa2/cs425_pa2.py -c ./benchmark3/bin/benchmark -o ./benchmark3/data/bombesin.hmm.new -I 50000000 --cpu-type=O3CPU --l1i_size=64kB --l1i_assoc=4 --l1d_size=64kB --l1d_assoc=4 --l2_size=256kB --l2_assoc=8 --bp-type=TournamentBP --btb_entries=1024 --LSQ_Entries=128 --numROB_Entries=128 --num_int_FUs=4 --num_complex_FUs=4 --num_ls_FUs=2 --num_float_FUs=4

info: Standard input is not a terminal, disabling listeners.
/home/chris/HY425/prog_assignment2/gem5/hy425
Beginning simulation!
build/X86/sim/simulate.cc:194: info: Entering event queue @ 0.  Starting simulation...
build/X86/sim/syscall_emul.hh:1015: warn: readlink() called on '/proc/self/exe' may yield unexpected results in various settings.
      Returning '/home/chris/HY425/prog_assignment2/gem5/hy425/benchmark3/bin/benchmark'
build/X86/sim/mem_state.cc:443: info: Increasing stack size by one page.
hmmcalibrate -- calibrate HMM search statistics
HMMER 2.3 (May 2003)
Copyright (C) 1992-2003 HHMI/Washington University School of Medicine
Freely distributed under the GNU General Public License (GPL)
- - - - - - - - - - - - - - - - - - - - - - - - - - - - - - - - - - - -
HMM file:                 ./benchmark3/data/bombesin.hmm.new
Length distribution mean: 325
Length distribution s.d.: 200
Number of samples:        5000
random seed:              1000000000
histogram(s) saved to:    [not saved]
- - - - - - - - - - - - - - - - - - - - - - - - - - - - - - - -

Exiting @ tick 69017376000 because a thread reached the max instruction count

real	5m14,440s
user	5m14,312s
sys	0m0,032s
-------------------------------------------------------
Global frequency set at 1000000000000 ticks per second
warn: No dot file generated. Please install pydot to generate the dot file and pdf.
build/X86/base/remote_gdb.cc:381: warn: Sockets disabled, not accepting gdb connections
gem5 Simulator System.  https://www.gem5.org
gem5 is copyrighted software; use the --copyright option for details.

gem5 version 22.0.0.2
gem5 compiled Dec 19 2023 11:16:18
gem5 started Dec 20 2023 18:30:39
gem5 executing on CPVM, pid 46591
command line: ../build/X86/gem5.opt -d ./benchmark4/m5out_LSQ:128._ROB:128._IFU:4._CFU:4._FFU:4._LSFU:2 ../configs/cs425_pa2/cs425_pa2.py -c ./benchmark4/bin/benchmark -o ./benchmark4/data/test.txt -I 50000000 --cpu-type=O3CPU --l1i_size=64kB --l1i_assoc=4 --l1d_size=64kB --l1d_assoc=4 --l2_size=256kB --l2_assoc=8 --bp-type=TournamentBP --btb_entries=1024 --LSQ_Entries=128 --numROB_Entries=128 --num_int_FUs=4 --num_complex_FUs=4 --num_ls_FUs=2 --num_float_FUs=4

info: Standard input is not a terminal, disabling listeners.
/home/chris/HY425/prog_assignment2/gem5/hy425
Beginning simulation!
build/X86/sim/simulate.cc:194: info: Entering event queue @ 0.  Starting simulation...
build/X86/sim/syscall_emul.hh:1015: warn: readlink() called on '/proc/self/exe' may yield unexpected results in various settings.
      Returning '/home/chris/HY425/prog_assignment2/gem5/hy425/benchmark4/bin/benchmark'
build/X86/sim/mem_state.cc:443: info: Increasing stack size by one page.
build/X86/sim/mem_state.cc:443: info: Increasing stack size by one page.
build/X86/sim/mem_state.cc:443: info: Increasing stack size by one page.
build/X86/sim/mem_state.cc:443: info: Increasing stack size by one page.
build/X86/sim/mem_state.cc:443: info: Increasing stack size by one page.
build/X86/sim/mem_state.cc:443: info: Increasing stack size by one page.

Sjeng version SPEC 1.0, Copyright (C) 2000-2005 Gian-Carlo Pascutto

SPEC Workload

build/X86/sim/mem_state.cc:443: info: Increasing stack size by one page.
build/X86/sim/mem_state.cc:443: info: Increasing stack size by one page.
build/X86/sim/mem_state.cc:443: info: Increasing stack size by one page.
  +----+----+----+----+----+----+----+----+
8 | *R |    |    |    | *K | *B |    | *R |
  +----+----+----+----+----+----+----+----+
7 |    |    |    | *N |    | *P | *P |    |
  +----+----+----+----+----+----+----+----+
6 | *P |    |    |    |    |    |    | *P |
  +----+----+----+----+----+----+----+----+
5 |    |    | *P |  P | *P |    |    | *Q |
  +----+----+----+----+----+----+----+----+
4 |  P | *P |    |    |  N |    |    |    |
  +----+----+----+----+----+----+----+----+
3 |    |    |    |  B |    |    |  P |  P |
  +----+----+----+----+----+----+----+----+
2 |    |  P |  Q |    |    |  P |    |    |
  +----+----+----+----+----+----+----+----+
1 |  R |    |    |    |  K |    |    |  R |
  +----+----+----+----+----+----+----+----+

     a    b    c    d    e    f    g    h

EPD: r3kb1r/3n1pp1/p6p/2pPp2q/Pp2N3/3B2PP/1PQ2P2/R3K2R w KQkq - bm d6; id "LCT2-POS-01";

Searching to 10 ply
Opening phase.
build/X86/sim/mem_state.cc:443: info: Increasing stack size by one page.
build/X86/sim/mem_state.cc:443: info: Increasing stack size by one page.
build/X86/sim/mem_state.cc:443: info: Increasing stack size by one page.
Time for move : 1000000
Exiting @ tick 398164390000 because a thread reached the max instruction count

real	15m24,908s
user	15m24,248s
sys	0m0,348s
-------------------------------------------------------
Global frequency set at 1000000000000 ticks per second
warn: No dot file generated. Please install pydot to generate the dot file and pdf.
build/X86/base/remote_gdb.cc:381: warn: Sockets disabled, not accepting gdb connections
gem5 Simulator System.  https://www.gem5.org
gem5 is copyrighted software; use the --copyright option for details.

gem5 version 22.0.0.2
gem5 compiled Dec 19 2023 11:16:18
gem5 started Dec 20 2023 18:46:04
gem5 executing on CPVM, pid 46597
command line: ../build/X86/gem5.opt -d ./benchmark5/m5out_LSQ:128._ROB:128._IFU:4._CFU:4._FFU:4._LSFU:2 ../configs/cs425_pa2/cs425_pa2.py -c ./benchmark5/bin/benchmark -o '20 reference.dat 0 1 ./benchmark5/data/100_100_130_cf_a.of' -I 50000000 --cpu-type=O3CPU --l1i_size=64kB --l1i_assoc=4 --l1d_size=64kB --l1d_assoc=4 --l2_size=256kB --l2_assoc=8 --bp-type=TournamentBP --btb_entries=1024 --LSQ_Entries=128 --numROB_Entries=128 --num_int_FUs=4 --num_complex_FUs=4 --num_ls_FUs=2 --num_float_FUs=4

info: Standard input is not a terminal, disabling listeners.
/home/chris/HY425/prog_assignment2/gem5/hy425
Beginning simulation!
build/X86/sim/simulate.cc:194: info: Entering event queue @ 0.  Starting simulation...
build/X86/sim/syscall_emul.hh:1015: warn: readlink() called on '/proc/self/exe' may yield unexpected results in various settings.
      Returning '/home/chris/HY425/prog_assignment2/gem5/hy425/benchmark5/bin/benchmark'
build/X86/sim/mem_state.cc:443: info: Increasing stack size by one page.
MAIN_printInfo:
	grid size      : 100 x 100 x 130 = 1.30 * 10^6 Cells
	nTimeSteps     : 20
	result file    : reference.dat
	action         : nothing
	simulation type: channel flow
	obstacle file  : ./benchmark5/data/100_100_130_cf_a.of

Exiting @ tick 38922066000 because a thread reached the max instruction count

real	5m20,562s
user	5m20,407s
sys	0m0,084s
-------------------------------------------------------
./runall.sh 128 128 4 4 4 4
Global frequency set at 1000000000000 ticks per second
warn: No dot file generated. Please install pydot to generate the dot file and pdf.
build/X86/base/remote_gdb.cc:381: warn: Sockets disabled, not accepting gdb connections
gem5 Simulator System.  https://www.gem5.org
gem5 is copyrighted software; use the --copyright option for details.

gem5 version 22.0.0.2
gem5 compiled Dec 19 2023 11:16:18
gem5 started Dec 20 2023 18:51:24
gem5 executing on CPVM, pid 46601
command line: ../build/X86/gem5.opt -d ./benchmark1/m5out_LSQ:128._ROB:128._IFU:4._CFU:4._FFU:4._LSFU:4 ../configs/cs425_pa2/cs425_pa2.py -c ./benchmark1/bin/benchmark -o ./benchmark1/data/input.program -I 50000000 --cpu-type=O3CPU --l1i_size=64kB --l1i_assoc=4 --l1d_size=64kB --l1d_assoc=4 --l2_size=256kB --l2_assoc=8 --bp-type=TournamentBP --btb_entries=1024 --LSQ_Entries=128 --numROB_Entries=128 --num_int_FUs=4 --num_complex_FUs=4 --num_ls_FUs=4 --num_float_FUs=4

info: Standard input is not a terminal, disabling listeners.
/home/chris/HY425/prog_assignment2/gem5/hy425
Beginning simulation!
build/X86/sim/simulate.cc:194: info: Entering event queue @ 0.  Starting simulation...
build/X86/sim/syscall_emul.hh:1015: warn: readlink() called on '/proc/self/exe' may yield unexpected results in various settings.
      Returning '/home/chris/HY425/prog_assignment2/gem5/hy425/benchmark1/bin/benchmark'
build/X86/sim/mem_state.cc:443: info: Increasing stack size by one page.
spec_init
Loading Input Data
Duplicating 8070616 bytes
build/X86/arch/x86/generated/exec-ns.cc.inc:27: warn: instruction 'prefetch_nta' unimplemented
build/X86/arch/x86/generated/exec-ns.cc.inc:27: warn: instruction 'prefetch_nta' unimplemented
build/X86/arch/generic/debugfaults.hh:145: warn: MOVNTI: Ignoring non-temporal hint, modeling as cacheable!
Duplicating 16141232 bytes
Duplicating 32282464 bytes
Duplicating 2543936 bytes
Input data 67108864 bytes in length
Compressing Input Data, level 5
Exiting @ tick 367958436000 because a thread reached the max instruction count

real	48m35,347s
user	48m33,611s
sys	0m1,455s
-------------------------------------------------------
Global frequency set at 1000000000000 ticks per second
warn: No dot file generated. Please install pydot to generate the dot file and pdf.
build/X86/base/remote_gdb.cc:381: warn: Sockets disabled, not accepting gdb connections
gem5 Simulator System.  https://www.gem5.org
gem5 is copyrighted software; use the --copyright option for details.

gem5 version 22.0.0.2
gem5 compiled Dec 19 2023 11:16:18
gem5 started Dec 20 2023 19:40:00
gem5 executing on CPVM, pid 46628
command line: ../build/X86/gem5.opt -d ./benchmark2/m5out_LSQ:128._ROB:128._IFU:4._CFU:4._FFU:4._LSFU:4 ../configs/cs425_pa2/cs425_pa2.py -c ./benchmark2/bin/benchmark -o ./benchmark2/data/inp.in -I 50000000 --cpu-type=O3CPU --l1i_size=64kB --l1i_assoc=4 --l1d_size=64kB --l1d_assoc=4 --l2_size=256kB --l2_assoc=8 --bp-type=TournamentBP --btb_entries=1024 --LSQ_Entries=128 --numROB_Entries=128 --num_int_FUs=4 --num_complex_FUs=4 --num_ls_FUs=4 --num_float_FUs=4

info: Standard input is not a terminal, disabling listeners.
/home/chris/HY425/prog_assignment2/gem5/hy425
Beginning simulation!
build/X86/sim/simulate.cc:194: info: Entering event queue @ 0.  Starting simulation...
build/X86/sim/syscall_emul.hh:1015: warn: readlink() called on '/proc/self/exe' may yield unexpected results in various settings.
      Returning '/home/chris/HY425/prog_assignment2/gem5/hy425/benchmark2/bin/benchmark'
build/X86/sim/mem_state.cc:443: info: Increasing stack size by one page.

MCF SPEC CPU2006 version 1.10
Copyright (c) 1998-2000 Zuse Institut Berlin (ZIB)
Copyright (c) 2000-2002 Andreas Loebel & ZIB
Copyright (c) 2003-2005 Andreas Loebel

Exiting @ tick 30964312000 because a thread reached the max instruction count

real	4m39,481s
user	4m39,374s
sys	0m0,040s
-------------------------------------------------------
Global frequency set at 1000000000000 ticks per second
warn: No dot file generated. Please install pydot to generate the dot file and pdf.
build/X86/base/remote_gdb.cc:381: warn: Sockets disabled, not accepting gdb connections
gem5 Simulator System.  https://www.gem5.org
gem5 is copyrighted software; use the --copyright option for details.

gem5 version 22.0.0.2
gem5 compiled Dec 19 2023 11:16:18
gem5 started Dec 20 2023 19:44:39
gem5 executing on CPVM, pid 46758
command line: ../build/X86/gem5.opt -d ./benchmark3/m5out_LSQ:128._ROB:128._IFU:4._CFU:4._FFU:4._LSFU:4 ../configs/cs425_pa2/cs425_pa2.py -c ./benchmark3/bin/benchmark -o ./benchmark3/data/bombesin.hmm.new -I 50000000 --cpu-type=O3CPU --l1i_size=64kB --l1i_assoc=4 --l1d_size=64kB --l1d_assoc=4 --l2_size=256kB --l2_assoc=8 --bp-type=TournamentBP --btb_entries=1024 --LSQ_Entries=128 --numROB_Entries=128 --num_int_FUs=4 --num_complex_FUs=4 --num_ls_FUs=4 --num_float_FUs=4

info: Standard input is not a terminal, disabling listeners.
/home/chris/HY425/prog_assignment2/gem5/hy425
Beginning simulation!
build/X86/sim/simulate.cc:194: info: Entering event queue @ 0.  Starting simulation...
build/X86/sim/syscall_emul.hh:1015: warn: readlink() called on '/proc/self/exe' may yield unexpected results in various settings.
      Returning '/home/chris/HY425/prog_assignment2/gem5/hy425/benchmark3/bin/benchmark'
build/X86/sim/mem_state.cc:443: info: Increasing stack size by one page.
hmmcalibrate -- calibrate HMM search statistics
HMMER 2.3 (May 2003)
Copyright (C) 1992-2003 HHMI/Washington University School of Medicine
Freely distributed under the GNU General Public License (GPL)
- - - - - - - - - - - - - - - - - - - - - - - - - - - - - - - - - - - -
HMM file:                 ./benchmark3/data/bombesin.hmm.new
Length distribution mean: 325
Length distribution s.d.: 200
Number of samples:        5000
random seed:              1000000000
histogram(s) saved to:    [not saved]
- - - - - - - - - - - - - - - - - - - - - - - - - - - - - - - -

Exiting @ tick 68123286000 because a thread reached the max instruction count

real	5m17,373s
user	5m17,072s
sys	0m0,221s
-------------------------------------------------------
Global frequency set at 1000000000000 ticks per second
warn: No dot file generated. Please install pydot to generate the dot file and pdf.
build/X86/base/remote_gdb.cc:381: warn: Sockets disabled, not accepting gdb connections
gem5 Simulator System.  https://www.gem5.org
gem5 is copyrighted software; use the --copyright option for details.

gem5 version 22.0.0.2
gem5 compiled Dec 19 2023 11:16:18
gem5 started Dec 20 2023 19:49:57
gem5 executing on CPVM, pid 46764
command line: ../build/X86/gem5.opt -d ./benchmark4/m5out_LSQ:128._ROB:128._IFU:4._CFU:4._FFU:4._LSFU:4 ../configs/cs425_pa2/cs425_pa2.py -c ./benchmark4/bin/benchmark -o ./benchmark4/data/test.txt -I 50000000 --cpu-type=O3CPU --l1i_size=64kB --l1i_assoc=4 --l1d_size=64kB --l1d_assoc=4 --l2_size=256kB --l2_assoc=8 --bp-type=TournamentBP --btb_entries=1024 --LSQ_Entries=128 --numROB_Entries=128 --num_int_FUs=4 --num_complex_FUs=4 --num_ls_FUs=4 --num_float_FUs=4

info: Standard input is not a terminal, disabling listeners.
/home/chris/HY425/prog_assignment2/gem5/hy425
Beginning simulation!
build/X86/sim/simulate.cc:194: info: Entering event queue @ 0.  Starting simulation...
build/X86/sim/syscall_emul.hh:1015: warn: readlink() called on '/proc/self/exe' may yield unexpected results in various settings.
      Returning '/home/chris/HY425/prog_assignment2/gem5/hy425/benchmark4/bin/benchmark'
build/X86/sim/mem_state.cc:443: info: Increasing stack size by one page.
build/X86/sim/mem_state.cc:443: info: Increasing stack size by one page.
build/X86/sim/mem_state.cc:443: info: Increasing stack size by one page.
build/X86/sim/mem_state.cc:443: info: Increasing stack size by one page.
build/X86/sim/mem_state.cc:443: info: Increasing stack size by one page.
build/X86/sim/mem_state.cc:443: info: Increasing stack size by one page.

Sjeng version SPEC 1.0, Copyright (C) 2000-2005 Gian-Carlo Pascutto

SPEC Workload

build/X86/sim/mem_state.cc:443: info: Increasing stack size by one page.
build/X86/sim/mem_state.cc:443: info: Increasing stack size by one page.
build/X86/sim/mem_state.cc:443: info: Increasing stack size by one page.
  +----+----+----+----+----+----+----+----+
8 | *R |    |    |    | *K | *B |    | *R |
  +----+----+----+----+----+----+----+----+
7 |    |    |    | *N |    | *P | *P |    |
  +----+----+----+----+----+----+----+----+
6 | *P |    |    |    |    |    |    | *P |
  +----+----+----+----+----+----+----+----+
5 |    |    | *P |  P | *P |    |    | *Q |
  +----+----+----+----+----+----+----+----+
4 |  P | *P |    |    |  N |    |    |    |
  +----+----+----+----+----+----+----+----+
3 |    |    |    |  B |    |    |  P |  P |
  +----+----+----+----+----+----+----+----+
2 |    |  P |  Q |    |    |  P |    |    |
  +----+----+----+----+----+----+----+----+
1 |  R |    |    |    |  K |    |    |  R |
  +----+----+----+----+----+----+----+----+

     a    b    c    d    e    f    g    h

EPD: r3kb1r/3n1pp1/p6p/2pPp2q/Pp2N3/3B2PP/1PQ2P2/R3K2R w KQkq - bm d6; id "LCT2-POS-01";

Searching to 10 ply
Opening phase.
build/X86/sim/mem_state.cc:443: info: Increasing stack size by one page.
build/X86/sim/mem_state.cc:443: info: Increasing stack size by one page.
build/X86/sim/mem_state.cc:443: info: Increasing stack size by one page.
Time for move : 1000000
Exiting @ tick 395053313000 because a thread reached the max instruction count

real	15m23,612s
user	15m22,825s
sys	0m0,352s
-------------------------------------------------------
Global frequency set at 1000000000000 ticks per second
warn: No dot file generated. Please install pydot to generate the dot file and pdf.
build/X86/base/remote_gdb.cc:381: warn: Sockets disabled, not accepting gdb connections
gem5 Simulator System.  https://www.gem5.org
gem5 is copyrighted software; use the --copyright option for details.

gem5 version 22.0.0.2
gem5 compiled Dec 19 2023 11:16:18
gem5 started Dec 20 2023 20:05:20
gem5 executing on CPVM, pid 46769
command line: ../build/X86/gem5.opt -d ./benchmark5/m5out_LSQ:128._ROB:128._IFU:4._CFU:4._FFU:4._LSFU:4 ../configs/cs425_pa2/cs425_pa2.py -c ./benchmark5/bin/benchmark -o '20 reference.dat 0 1 ./benchmark5/data/100_100_130_cf_a.of' -I 50000000 --cpu-type=O3CPU --l1i_size=64kB --l1i_assoc=4 --l1d_size=64kB --l1d_assoc=4 --l2_size=256kB --l2_assoc=8 --bp-type=TournamentBP --btb_entries=1024 --LSQ_Entries=128 --numROB_Entries=128 --num_int_FUs=4 --num_complex_FUs=4 --num_ls_FUs=4 --num_float_FUs=4

info: Standard input is not a terminal, disabling listeners.
/home/chris/HY425/prog_assignment2/gem5/hy425
Beginning simulation!
build/X86/sim/simulate.cc:194: info: Entering event queue @ 0.  Starting simulation...
build/X86/sim/syscall_emul.hh:1015: warn: readlink() called on '/proc/self/exe' may yield unexpected results in various settings.
      Returning '/home/chris/HY425/prog_assignment2/gem5/hy425/benchmark5/bin/benchmark'
build/X86/sim/mem_state.cc:443: info: Increasing stack size by one page.
MAIN_printInfo:
	grid size      : 100 x 100 x 130 = 1.30 * 10^6 Cells
	nTimeSteps     : 20
	result file    : reference.dat
	action         : nothing
	simulation type: channel flow
	obstacle file  : ./benchmark5/data/100_100_130_cf_a.of

Exiting @ tick 39197117000 because a thread reached the max instruction count

real	5m13,065s
user	5m12,778s
sys	0m0,246s
-------------------------------------------------------
# 8 FUINT_NUM
./runall.sh 128 128 8 4 2 2
Global frequency set at 1000000000000 ticks per second
warn: No dot file generated. Please install pydot to generate the dot file and pdf.
build/X86/base/remote_gdb.cc:381: warn: Sockets disabled, not accepting gdb connections
gem5 Simulator System.  https://www.gem5.org
gem5 is copyrighted software; use the --copyright option for details.

gem5 version 22.0.0.2
gem5 compiled Dec 19 2023 11:16:18
gem5 started Dec 20 2023 20:10:33
gem5 executing on CPVM, pid 46773
command line: ../build/X86/gem5.opt -d ./benchmark1/m5out_LSQ:128._ROB:128._IFU:8._CFU:4._FFU:2._LSFU:2 ../configs/cs425_pa2/cs425_pa2.py -c ./benchmark1/bin/benchmark -o ./benchmark1/data/input.program -I 50000000 --cpu-type=O3CPU --l1i_size=64kB --l1i_assoc=4 --l1d_size=64kB --l1d_assoc=4 --l2_size=256kB --l2_assoc=8 --bp-type=TournamentBP --btb_entries=1024 --LSQ_Entries=128 --numROB_Entries=128 --num_int_FUs=8 --num_complex_FUs=4 --num_ls_FUs=2 --num_float_FUs=2

info: Standard input is not a terminal, disabling listeners.
/home/chris/HY425/prog_assignment2/gem5/hy425
Beginning simulation!
build/X86/sim/simulate.cc:194: info: Entering event queue @ 0.  Starting simulation...
build/X86/sim/syscall_emul.hh:1015: warn: readlink() called on '/proc/self/exe' may yield unexpected results in various settings.
      Returning '/home/chris/HY425/prog_assignment2/gem5/hy425/benchmark1/bin/benchmark'
build/X86/sim/mem_state.cc:443: info: Increasing stack size by one page.
spec_init
Loading Input Data
Duplicating 8070616 bytes
build/X86/arch/x86/generated/exec-ns.cc.inc:27: warn: instruction 'prefetch_nta' unimplemented
build/X86/arch/x86/generated/exec-ns.cc.inc:27: warn: instruction 'prefetch_nta' unimplemented
build/X86/arch/generic/debugfaults.hh:145: warn: MOVNTI: Ignoring non-temporal hint, modeling as cacheable!
Duplicating 16141232 bytes
Duplicating 32282464 bytes
Duplicating 2543936 bytes
Input data 67108864 bytes in length
Compressing Input Data, level 5
Exiting @ tick 370432301000 because a thread reached the max instruction count

real	49m9,685s
user	49m7,856s
sys	0m1,594s
-------------------------------------------------------
Global frequency set at 1000000000000 ticks per second
warn: No dot file generated. Please install pydot to generate the dot file and pdf.
build/X86/base/remote_gdb.cc:381: warn: Sockets disabled, not accepting gdb connections
gem5 Simulator System.  https://www.gem5.org
gem5 is copyrighted software; use the --copyright option for details.

gem5 version 22.0.0.2
gem5 compiled Dec 19 2023 11:16:18
gem5 started Dec 20 2023 20:59:43
gem5 executing on CPVM, pid 46805
command line: ../build/X86/gem5.opt -d ./benchmark2/m5out_LSQ:128._ROB:128._IFU:8._CFU:4._FFU:2._LSFU:2 ../configs/cs425_pa2/cs425_pa2.py -c ./benchmark2/bin/benchmark -o ./benchmark2/data/inp.in -I 50000000 --cpu-type=O3CPU --l1i_size=64kB --l1i_assoc=4 --l1d_size=64kB --l1d_assoc=4 --l2_size=256kB --l2_assoc=8 --bp-type=TournamentBP --btb_entries=1024 --LSQ_Entries=128 --numROB_Entries=128 --num_int_FUs=8 --num_complex_FUs=4 --num_ls_FUs=2 --num_float_FUs=2

info: Standard input is not a terminal, disabling listeners.
/home/chris/HY425/prog_assignment2/gem5/hy425
Beginning simulation!
build/X86/sim/simulate.cc:194: info: Entering event queue @ 0.  Starting simulation...
build/X86/sim/syscall_emul.hh:1015: warn: readlink() called on '/proc/self/exe' may yield unexpected results in various settings.
      Returning '/home/chris/HY425/prog_assignment2/gem5/hy425/benchmark2/bin/benchmark'
build/X86/sim/mem_state.cc:443: info: Increasing stack size by one page.

MCF SPEC CPU2006 version 1.10
Copyright (c) 1998-2000 Zuse Institut Berlin (ZIB)
Copyright (c) 2000-2002 Andreas Loebel & ZIB
Copyright (c) 2003-2005 Andreas Loebel

Exiting @ tick 30470769000 because a thread reached the max instruction count

real	4m35,716s
user	4m35,634s
sys	0m0,056s
-------------------------------------------------------
Global frequency set at 1000000000000 ticks per second
warn: No dot file generated. Please install pydot to generate the dot file and pdf.
build/X86/base/remote_gdb.cc:381: warn: Sockets disabled, not accepting gdb connections
gem5 Simulator System.  https://www.gem5.org
gem5 is copyrighted software; use the --copyright option for details.

gem5 version 22.0.0.2
gem5 compiled Dec 19 2023 11:16:18
gem5 started Dec 20 2023 21:04:19
gem5 executing on CPVM, pid 46808
command line: ../build/X86/gem5.opt -d ./benchmark3/m5out_LSQ:128._ROB:128._IFU:8._CFU:4._FFU:2._LSFU:2 ../configs/cs425_pa2/cs425_pa2.py -c ./benchmark3/bin/benchmark -o ./benchmark3/data/bombesin.hmm.new -I 50000000 --cpu-type=O3CPU --l1i_size=64kB --l1i_assoc=4 --l1d_size=64kB --l1d_assoc=4 --l2_size=256kB --l2_assoc=8 --bp-type=TournamentBP --btb_entries=1024 --LSQ_Entries=128 --numROB_Entries=128 --num_int_FUs=8 --num_complex_FUs=4 --num_ls_FUs=2 --num_float_FUs=2

info: Standard input is not a terminal, disabling listeners.
/home/chris/HY425/prog_assignment2/gem5/hy425
Beginning simulation!
build/X86/sim/simulate.cc:194: info: Entering event queue @ 0.  Starting simulation...
build/X86/sim/syscall_emul.hh:1015: warn: readlink() called on '/proc/self/exe' may yield unexpected results in various settings.
      Returning '/home/chris/HY425/prog_assignment2/gem5/hy425/benchmark3/bin/benchmark'
build/X86/sim/mem_state.cc:443: info: Increasing stack size by one page.
hmmcalibrate -- calibrate HMM search statistics
HMMER 2.3 (May 2003)
Copyright (C) 1992-2003 HHMI/Washington University School of Medicine
Freely distributed under the GNU General Public License (GPL)
- - - - - - - - - - - - - - - - - - - - - - - - - - - - - - - - - - - -
HMM file:                 ./benchmark3/data/bombesin.hmm.new
Length distribution mean: 325
Length distribution s.d.: 200
Number of samples:        5000
random seed:              1000000000
histogram(s) saved to:    [not saved]
- - - - - - - - - - - - - - - - - - - - - - - - - - - - - - - -

Exiting @ tick 69028719000 because a thread reached the max instruction count

real	5m17,753s
user	5m17,531s
sys	0m0,154s
-------------------------------------------------------
Global frequency set at 1000000000000 ticks per second
warn: No dot file generated. Please install pydot to generate the dot file and pdf.
build/X86/base/remote_gdb.cc:381: warn: Sockets disabled, not accepting gdb connections
gem5 Simulator System.  https://www.gem5.org
gem5 is copyrighted software; use the --copyright option for details.

gem5 version 22.0.0.2
gem5 compiled Dec 19 2023 11:16:18
gem5 started Dec 20 2023 21:09:36
gem5 executing on CPVM, pid 46809
command line: ../build/X86/gem5.opt -d ./benchmark4/m5out_LSQ:128._ROB:128._IFU:8._CFU:4._FFU:2._LSFU:2 ../configs/cs425_pa2/cs425_pa2.py -c ./benchmark4/bin/benchmark -o ./benchmark4/data/test.txt -I 50000000 --cpu-type=O3CPU --l1i_size=64kB --l1i_assoc=4 --l1d_size=64kB --l1d_assoc=4 --l2_size=256kB --l2_assoc=8 --bp-type=TournamentBP --btb_entries=1024 --LSQ_Entries=128 --numROB_Entries=128 --num_int_FUs=8 --num_complex_FUs=4 --num_ls_FUs=2 --num_float_FUs=2

info: Standard input is not a terminal, disabling listeners.
/home/chris/HY425/prog_assignment2/gem5/hy425
Beginning simulation!
build/X86/sim/simulate.cc:194: info: Entering event queue @ 0.  Starting simulation...
build/X86/sim/syscall_emul.hh:1015: warn: readlink() called on '/proc/self/exe' may yield unexpected results in various settings.
      Returning '/home/chris/HY425/prog_assignment2/gem5/hy425/benchmark4/bin/benchmark'
build/X86/sim/mem_state.cc:443: info: Increasing stack size by one page.
build/X86/sim/mem_state.cc:443: info: Increasing stack size by one page.
build/X86/sim/mem_state.cc:443: info: Increasing stack size by one page.
build/X86/sim/mem_state.cc:443: info: Increasing stack size by one page.
build/X86/sim/mem_state.cc:443: info: Increasing stack size by one page.
build/X86/sim/mem_state.cc:443: info: Increasing stack size by one page.

Sjeng version SPEC 1.0, Copyright (C) 2000-2005 Gian-Carlo Pascutto

SPEC Workload

build/X86/sim/mem_state.cc:443: info: Increasing stack size by one page.
build/X86/sim/mem_state.cc:443: info: Increasing stack size by one page.
build/X86/sim/mem_state.cc:443: info: Increasing stack size by one page.
  +----+----+----+----+----+----+----+----+
8 | *R |    |    |    | *K | *B |    | *R |
  +----+----+----+----+----+----+----+----+
7 |    |    |    | *N |    | *P | *P |    |
  +----+----+----+----+----+----+----+----+
6 | *P |    |    |    |    |    |    | *P |
  +----+----+----+----+----+----+----+----+
5 |    |    | *P |  P | *P |    |    | *Q |
  +----+----+----+----+----+----+----+----+
4 |  P | *P |    |    |  N |    |    |    |
  +----+----+----+----+----+----+----+----+
3 |    |    |    |  B |    |    |  P |  P |
  +----+----+----+----+----+----+----+----+
2 |    |  P |  Q |    |    |  P |    |    |
  +----+----+----+----+----+----+----+----+
1 |  R |    |    |    |  K |    |    |  R |
  +----+----+----+----+----+----+----+----+

     a    b    c    d    e    f    g    h

EPD: r3kb1r/3n1pp1/p6p/2pPp2q/Pp2N3/3B2PP/1PQ2P2/R3K2R w KQkq - bm d6; id "LCT2-POS-01";

Searching to 10 ply
Opening phase.
build/X86/sim/mem_state.cc:443: info: Increasing stack size by one page.
build/X86/sim/mem_state.cc:443: info: Increasing stack size by one page.
build/X86/sim/mem_state.cc:443: info: Increasing stack size by one page.
Time for move : 1000000
Exiting @ tick 396434886000 because a thread reached the max instruction count

real	15m48,523s
user	15m47,873s
sys	0m0,316s
-------------------------------------------------------
Global frequency set at 1000000000000 ticks per second
warn: No dot file generated. Please install pydot to generate the dot file and pdf.
build/X86/base/remote_gdb.cc:381: warn: Sockets disabled, not accepting gdb connections
gem5 Simulator System.  https://www.gem5.org
gem5 is copyrighted software; use the --copyright option for details.

gem5 version 22.0.0.2
gem5 compiled Dec 19 2023 11:16:18
gem5 started Dec 20 2023 21:25:25
gem5 executing on CPVM, pid 46816
command line: ../build/X86/gem5.opt -d ./benchmark5/m5out_LSQ:128._ROB:128._IFU:8._CFU:4._FFU:2._LSFU:2 ../configs/cs425_pa2/cs425_pa2.py -c ./benchmark5/bin/benchmark -o '20 reference.dat 0 1 ./benchmark5/data/100_100_130_cf_a.of' -I 50000000 --cpu-type=O3CPU --l1i_size=64kB --l1i_assoc=4 --l1d_size=64kB --l1d_assoc=4 --l2_size=256kB --l2_assoc=8 --bp-type=TournamentBP --btb_entries=1024 --LSQ_Entries=128 --numROB_Entries=128 --num_int_FUs=8 --num_complex_FUs=4 --num_ls_FUs=2 --num_float_FUs=2

info: Standard input is not a terminal, disabling listeners.
/home/chris/HY425/prog_assignment2/gem5/hy425
Beginning simulation!
build/X86/sim/simulate.cc:194: info: Entering event queue @ 0.  Starting simulation...
build/X86/sim/syscall_emul.hh:1015: warn: readlink() called on '/proc/self/exe' may yield unexpected results in various settings.
      Returning '/home/chris/HY425/prog_assignment2/gem5/hy425/benchmark5/bin/benchmark'
build/X86/sim/mem_state.cc:443: info: Increasing stack size by one page.
MAIN_printInfo:
	grid size      : 100 x 100 x 130 = 1.30 * 10^6 Cells
	nTimeSteps     : 20
	result file    : reference.dat
	action         : nothing
	simulation type: channel flow
	obstacle file  : ./benchmark5/data/100_100_130_cf_a.of

Exiting @ tick 39045680000 because a thread reached the max instruction count

real	5m19,738s
user	5m19,413s
sys	0m0,278s
-------------------------------------------------------
./runall.sh 128 128 8 4 2 4
Global frequency set at 1000000000000 ticks per second
warn: No dot file generated. Please install pydot to generate the dot file and pdf.
build/X86/base/remote_gdb.cc:381: warn: Sockets disabled, not accepting gdb connections
gem5 Simulator System.  https://www.gem5.org
gem5 is copyrighted software; use the --copyright option for details.

gem5 version 22.0.0.2
gem5 compiled Dec 19 2023 11:16:18
gem5 started Dec 20 2023 21:30:45
gem5 executing on CPVM, pid 46823
command line: ../build/X86/gem5.opt -d ./benchmark1/m5out_LSQ:128._ROB:128._IFU:8._CFU:4._FFU:2._LSFU:4 ../configs/cs425_pa2/cs425_pa2.py -c ./benchmark1/bin/benchmark -o ./benchmark1/data/input.program -I 50000000 --cpu-type=O3CPU --l1i_size=64kB --l1i_assoc=4 --l1d_size=64kB --l1d_assoc=4 --l2_size=256kB --l2_assoc=8 --bp-type=TournamentBP --btb_entries=1024 --LSQ_Entries=128 --numROB_Entries=128 --num_int_FUs=8 --num_complex_FUs=4 --num_ls_FUs=4 --num_float_FUs=2

info: Standard input is not a terminal, disabling listeners.
/home/chris/HY425/prog_assignment2/gem5/hy425
Beginning simulation!
build/X86/sim/simulate.cc:194: info: Entering event queue @ 0.  Starting simulation...
build/X86/sim/syscall_emul.hh:1015: warn: readlink() called on '/proc/self/exe' may yield unexpected results in various settings.
      Returning '/home/chris/HY425/prog_assignment2/gem5/hy425/benchmark1/bin/benchmark'
build/X86/sim/mem_state.cc:443: info: Increasing stack size by one page.
spec_init
Loading Input Data
Duplicating 8070616 bytes
build/X86/arch/x86/generated/exec-ns.cc.inc:27: warn: instruction 'prefetch_nta' unimplemented
build/X86/arch/x86/generated/exec-ns.cc.inc:27: warn: instruction 'prefetch_nta' unimplemented
build/X86/arch/generic/debugfaults.hh:145: warn: MOVNTI: Ignoring non-temporal hint, modeling as cacheable!
Duplicating 16141232 bytes
Duplicating 32282464 bytes
Duplicating 2543936 bytes
Input data 67108864 bytes in length
Compressing Input Data, level 5
Exiting @ tick 369043808000 because a thread reached the max instruction count

real	47m58,909s
user	47m58,307s
sys	0m0,492s
-------------------------------------------------------
Global frequency set at 1000000000000 ticks per second
warn: No dot file generated. Please install pydot to generate the dot file and pdf.
build/X86/base/remote_gdb.cc:381: warn: Sockets disabled, not accepting gdb connections
gem5 Simulator System.  https://www.gem5.org
gem5 is copyrighted software; use the --copyright option for details.

gem5 version 22.0.0.2
gem5 compiled Dec 19 2023 11:16:18
gem5 started Dec 20 2023 22:18:44
gem5 executing on CPVM, pid 46887
command line: ../build/X86/gem5.opt -d ./benchmark2/m5out_LSQ:128._ROB:128._IFU:8._CFU:4._FFU:2._LSFU:4 ../configs/cs425_pa2/cs425_pa2.py -c ./benchmark2/bin/benchmark -o ./benchmark2/data/inp.in -I 50000000 --cpu-type=O3CPU --l1i_size=64kB --l1i_assoc=4 --l1d_size=64kB --l1d_assoc=4 --l2_size=256kB --l2_assoc=8 --bp-type=TournamentBP --btb_entries=1024 --LSQ_Entries=128 --numROB_Entries=128 --num_int_FUs=8 --num_complex_FUs=4 --num_ls_FUs=4 --num_float_FUs=2

info: Standard input is not a terminal, disabling listeners.
/home/chris/HY425/prog_assignment2/gem5/hy425
Beginning simulation!
build/X86/sim/simulate.cc:194: info: Entering event queue @ 0.  Starting simulation...
build/X86/sim/syscall_emul.hh:1015: warn: readlink() called on '/proc/self/exe' may yield unexpected results in various settings.
      Returning '/home/chris/HY425/prog_assignment2/gem5/hy425/benchmark2/bin/benchmark'
build/X86/sim/mem_state.cc:443: info: Increasing stack size by one page.

MCF SPEC CPU2006 version 1.10
Copyright (c) 1998-2000 Zuse Institut Berlin (ZIB)
Copyright (c) 2000-2002 Andreas Loebel & ZIB
Copyright (c) 2003-2005 Andreas Loebel

Exiting @ tick 30469617000 because a thread reached the max instruction count

real	4m41,100s
user	4m40,917s
sys	0m0,145s
-------------------------------------------------------
Global frequency set at 1000000000000 ticks per second
warn: No dot file generated. Please install pydot to generate the dot file and pdf.
build/X86/base/remote_gdb.cc:381: warn: Sockets disabled, not accepting gdb connections
gem5 Simulator System.  https://www.gem5.org
gem5 is copyrighted software; use the --copyright option for details.

gem5 version 22.0.0.2
gem5 compiled Dec 19 2023 11:16:18
gem5 started Dec 20 2023 22:23:25
gem5 executing on CPVM, pid 46890
command line: ../build/X86/gem5.opt -d ./benchmark3/m5out_LSQ:128._ROB:128._IFU:8._CFU:4._FFU:2._LSFU:4 ../configs/cs425_pa2/cs425_pa2.py -c ./benchmark3/bin/benchmark -o ./benchmark3/data/bombesin.hmm.new -I 50000000 --cpu-type=O3CPU --l1i_size=64kB --l1i_assoc=4 --l1d_size=64kB --l1d_assoc=4 --l2_size=256kB --l2_assoc=8 --bp-type=TournamentBP --btb_entries=1024 --LSQ_Entries=128 --numROB_Entries=128 --num_int_FUs=8 --num_complex_FUs=4 --num_ls_FUs=4 --num_float_FUs=2

info: Standard input is not a terminal, disabling listeners.
/home/chris/HY425/prog_assignment2/gem5/hy425
Beginning simulation!
build/X86/sim/simulate.cc:194: info: Entering event queue @ 0.  Starting simulation...
build/X86/sim/syscall_emul.hh:1015: warn: readlink() called on '/proc/self/exe' may yield unexpected results in various settings.
      Returning '/home/chris/HY425/prog_assignment2/gem5/hy425/benchmark3/bin/benchmark'
build/X86/sim/mem_state.cc:443: info: Increasing stack size by one page.
hmmcalibrate -- calibrate HMM search statistics
HMMER 2.3 (May 2003)
Copyright (C) 1992-2003 HHMI/Washington University School of Medicine
Freely distributed under the GNU General Public License (GPL)
- - - - - - - - - - - - - - - - - - - - - - - - - - - - - - - - - - - -
HMM file:                 ./benchmark3/data/bombesin.hmm.new
Length distribution mean: 325
Length distribution s.d.: 200
Number of samples:        5000
random seed:              1000000000
histogram(s) saved to:    [not saved]
- - - - - - - - - - - - - - - - - - - - - - - - - - - - - - - -

Exiting @ tick 68097414000 because a thread reached the max instruction count

real	5m11,239s
user	5m11,158s
sys	0m0,028s
-------------------------------------------------------
Global frequency set at 1000000000000 ticks per second
warn: No dot file generated. Please install pydot to generate the dot file and pdf.
build/X86/base/remote_gdb.cc:381: warn: Sockets disabled, not accepting gdb connections
gem5 Simulator System.  https://www.gem5.org
gem5 is copyrighted software; use the --copyright option for details.

gem5 version 22.0.0.2
gem5 compiled Dec 19 2023 11:16:18
gem5 started Dec 20 2023 22:28:36
gem5 executing on CPVM, pid 46891
command line: ../build/X86/gem5.opt -d ./benchmark4/m5out_LSQ:128._ROB:128._IFU:8._CFU:4._FFU:2._LSFU:4 ../configs/cs425_pa2/cs425_pa2.py -c ./benchmark4/bin/benchmark -o ./benchmark4/data/test.txt -I 50000000 --cpu-type=O3CPU --l1i_size=64kB --l1i_assoc=4 --l1d_size=64kB --l1d_assoc=4 --l2_size=256kB --l2_assoc=8 --bp-type=TournamentBP --btb_entries=1024 --LSQ_Entries=128 --numROB_Entries=128 --num_int_FUs=8 --num_complex_FUs=4 --num_ls_FUs=4 --num_float_FUs=2

info: Standard input is not a terminal, disabling listeners.
/home/chris/HY425/prog_assignment2/gem5/hy425
Beginning simulation!
build/X86/sim/simulate.cc:194: info: Entering event queue @ 0.  Starting simulation...
build/X86/sim/syscall_emul.hh:1015: warn: readlink() called on '/proc/self/exe' may yield unexpected results in various settings.
      Returning '/home/chris/HY425/prog_assignment2/gem5/hy425/benchmark4/bin/benchmark'
build/X86/sim/mem_state.cc:443: info: Increasing stack size by one page.
build/X86/sim/mem_state.cc:443: info: Increasing stack size by one page.
build/X86/sim/mem_state.cc:443: info: Increasing stack size by one page.
build/X86/sim/mem_state.cc:443: info: Increasing stack size by one page.
build/X86/sim/mem_state.cc:443: info: Increasing stack size by one page.
build/X86/sim/mem_state.cc:443: info: Increasing stack size by one page.

Sjeng version SPEC 1.0, Copyright (C) 2000-2005 Gian-Carlo Pascutto

SPEC Workload

build/X86/sim/mem_state.cc:443: info: Increasing stack size by one page.
build/X86/sim/mem_state.cc:443: info: Increasing stack size by one page.
build/X86/sim/mem_state.cc:443: info: Increasing stack size by one page.
  +----+----+----+----+----+----+----+----+
8 | *R |    |    |    | *K | *B |    | *R |
  +----+----+----+----+----+----+----+----+
7 |    |    |    | *N |    | *P | *P |    |
  +----+----+----+----+----+----+----+----+
6 | *P |    |    |    |    |    |    | *P |
  +----+----+----+----+----+----+----+----+
5 |    |    | *P |  P | *P |    |    | *Q |
  +----+----+----+----+----+----+----+----+
4 |  P | *P |    |    |  N |    |    |    |
  +----+----+----+----+----+----+----+----+
3 |    |    |    |  B |    |    |  P |  P |
  +----+----+----+----+----+----+----+----+
2 |    |  P |  Q |    |    |  P |    |    |
  +----+----+----+----+----+----+----+----+
1 |  R |    |    |    |  K |    |    |  R |
  +----+----+----+----+----+----+----+----+

     a    b    c    d    e    f    g    h

EPD: r3kb1r/3n1pp1/p6p/2pPp2q/Pp2N3/3B2PP/1PQ2P2/R3K2R w KQkq - bm d6; id "LCT2-POS-01";

Searching to 10 ply
Opening phase.
build/X86/sim/mem_state.cc:443: info: Increasing stack size by one page.
build/X86/sim/mem_state.cc:443: info: Increasing stack size by one page.
build/X86/sim/mem_state.cc:443: info: Increasing stack size by one page.
Time for move : 1000000
Exiting @ tick 393232623000 because a thread reached the max instruction count

real	15m9,162s
user	15m8,549s
sys	0m0,296s
-------------------------------------------------------
Global frequency set at 1000000000000 ticks per second
warn: No dot file generated. Please install pydot to generate the dot file and pdf.
build/X86/base/remote_gdb.cc:381: warn: Sockets disabled, not accepting gdb connections
gem5 Simulator System.  https://www.gem5.org
gem5 is copyrighted software; use the --copyright option for details.

gem5 version 22.0.0.2
gem5 compiled Dec 19 2023 11:16:18
gem5 started Dec 20 2023 22:43:45
gem5 executing on CPVM, pid 46901
command line: ../build/X86/gem5.opt -d ./benchmark5/m5out_LSQ:128._ROB:128._IFU:8._CFU:4._FFU:2._LSFU:4 ../configs/cs425_pa2/cs425_pa2.py -c ./benchmark5/bin/benchmark -o '20 reference.dat 0 1 ./benchmark5/data/100_100_130_cf_a.of' -I 50000000 --cpu-type=O3CPU --l1i_size=64kB --l1i_assoc=4 --l1d_size=64kB --l1d_assoc=4 --l2_size=256kB --l2_assoc=8 --bp-type=TournamentBP --btb_entries=1024 --LSQ_Entries=128 --numROB_Entries=128 --num_int_FUs=8 --num_complex_FUs=4 --num_ls_FUs=4 --num_float_FUs=2

info: Standard input is not a terminal, disabling listeners.
/home/chris/HY425/prog_assignment2/gem5/hy425
Beginning simulation!
build/X86/sim/simulate.cc:194: info: Entering event queue @ 0.  Starting simulation...
build/X86/sim/syscall_emul.hh:1015: warn: readlink() called on '/proc/self/exe' may yield unexpected results in various settings.
      Returning '/home/chris/HY425/prog_assignment2/gem5/hy425/benchmark5/bin/benchmark'
build/X86/sim/mem_state.cc:443: info: Increasing stack size by one page.
MAIN_printInfo:
	grid size      : 100 x 100 x 130 = 1.30 * 10^6 Cells
	nTimeSteps     : 20
	result file    : reference.dat
	action         : nothing
	simulation type: channel flow
	obstacle file  : ./benchmark5/data/100_100_130_cf_a.of

Exiting @ tick 39192225000 because a thread reached the max instruction count

real	5m12,719s
user	5m12,454s
sys	0m0,196s
-------------------------------------------------------
./runall.sh 128 128 8 4 4 2
Global frequency set at 1000000000000 ticks per second
warn: No dot file generated. Please install pydot to generate the dot file and pdf.
build/X86/base/remote_gdb.cc:381: warn: Sockets disabled, not accepting gdb connections
gem5 Simulator System.  https://www.gem5.org
gem5 is copyrighted software; use the --copyright option for details.

gem5 version 22.0.0.2
gem5 compiled Dec 19 2023 11:16:18
gem5 started Dec 20 2023 22:48:58
gem5 executing on CPVM, pid 46903
command line: ../build/X86/gem5.opt -d ./benchmark1/m5out_LSQ:128._ROB:128._IFU:8._CFU:4._FFU:4._LSFU:2 ../configs/cs425_pa2/cs425_pa2.py -c ./benchmark1/bin/benchmark -o ./benchmark1/data/input.program -I 50000000 --cpu-type=O3CPU --l1i_size=64kB --l1i_assoc=4 --l1d_size=64kB --l1d_assoc=4 --l2_size=256kB --l2_assoc=8 --bp-type=TournamentBP --btb_entries=1024 --LSQ_Entries=128 --numROB_Entries=128 --num_int_FUs=8 --num_complex_FUs=4 --num_ls_FUs=2 --num_float_FUs=4

info: Standard input is not a terminal, disabling listeners.
/home/chris/HY425/prog_assignment2/gem5/hy425
Beginning simulation!
build/X86/sim/simulate.cc:194: info: Entering event queue @ 0.  Starting simulation...
build/X86/sim/syscall_emul.hh:1015: warn: readlink() called on '/proc/self/exe' may yield unexpected results in various settings.
      Returning '/home/chris/HY425/prog_assignment2/gem5/hy425/benchmark1/bin/benchmark'
build/X86/sim/mem_state.cc:443: info: Increasing stack size by one page.
spec_init
Loading Input Data
Duplicating 8070616 bytes
build/X86/arch/x86/generated/exec-ns.cc.inc:27: warn: instruction 'prefetch_nta' unimplemented
build/X86/arch/x86/generated/exec-ns.cc.inc:27: warn: instruction 'prefetch_nta' unimplemented
build/X86/arch/generic/debugfaults.hh:145: warn: MOVNTI: Ignoring non-temporal hint, modeling as cacheable!
Duplicating 16141232 bytes
Duplicating 32282464 bytes
Duplicating 2543936 bytes
Input data 67108864 bytes in length
Compressing Input Data, level 5
Exiting @ tick 370488745000 because a thread reached the max instruction count

real	50m9,885s
user	50m9,047s
sys	0m0,340s
-------------------------------------------------------
Global frequency set at 1000000000000 ticks per second
warn: No dot file generated. Please install pydot to generate the dot file and pdf.
build/X86/base/remote_gdb.cc:381: warn: Sockets disabled, not accepting gdb connections
gem5 Simulator System.  https://www.gem5.org
gem5 is copyrighted software; use the --copyright option for details.

gem5 version 22.0.0.2
gem5 compiled Dec 19 2023 11:16:18
gem5 started Dec 20 2023 23:39:08
gem5 executing on CPVM, pid 46927
command line: ../build/X86/gem5.opt -d ./benchmark2/m5out_LSQ:128._ROB:128._IFU:8._CFU:4._FFU:4._LSFU:2 ../configs/cs425_pa2/cs425_pa2.py -c ./benchmark2/bin/benchmark -o ./benchmark2/data/inp.in -I 50000000 --cpu-type=O3CPU --l1i_size=64kB --l1i_assoc=4 --l1d_size=64kB --l1d_assoc=4 --l2_size=256kB --l2_assoc=8 --bp-type=TournamentBP --btb_entries=1024 --LSQ_Entries=128 --numROB_Entries=128 --num_int_FUs=8 --num_complex_FUs=4 --num_ls_FUs=2 --num_float_FUs=4

info: Standard input is not a terminal, disabling listeners.
/home/chris/HY425/prog_assignment2/gem5/hy425
Beginning simulation!
build/X86/sim/simulate.cc:194: info: Entering event queue @ 0.  Starting simulation...
build/X86/sim/syscall_emul.hh:1015: warn: readlink() called on '/proc/self/exe' may yield unexpected results in various settings.
      Returning '/home/chris/HY425/prog_assignment2/gem5/hy425/benchmark2/bin/benchmark'
build/X86/sim/mem_state.cc:443: info: Increasing stack size by one page.

MCF SPEC CPU2006 version 1.10
Copyright (c) 1998-2000 Zuse Institut Berlin (ZIB)
Copyright (c) 2000-2002 Andreas Loebel & ZIB
Copyright (c) 2003-2005 Andreas Loebel

Exiting @ tick 30468806000 because a thread reached the max instruction count

real	4m34,965s
user	4m34,870s
sys	0m0,032s
-------------------------------------------------------
Global frequency set at 1000000000000 ticks per second
warn: No dot file generated. Please install pydot to generate the dot file and pdf.
build/X86/base/remote_gdb.cc:381: warn: Sockets disabled, not accepting gdb connections
gem5 Simulator System.  https://www.gem5.org
gem5 is copyrighted software; use the --copyright option for details.

gem5 version 22.0.0.2
gem5 compiled Dec 19 2023 11:16:18
gem5 started Dec 20 2023 23:43:43
gem5 executing on CPVM, pid 46930
command line: ../build/X86/gem5.opt -d ./benchmark3/m5out_LSQ:128._ROB:128._IFU:8._CFU:4._FFU:4._LSFU:2 ../configs/cs425_pa2/cs425_pa2.py -c ./benchmark3/bin/benchmark -o ./benchmark3/data/bombesin.hmm.new -I 50000000 --cpu-type=O3CPU --l1i_size=64kB --l1i_assoc=4 --l1d_size=64kB --l1d_assoc=4 --l2_size=256kB --l2_assoc=8 --bp-type=TournamentBP --btb_entries=1024 --LSQ_Entries=128 --numROB_Entries=128 --num_int_FUs=8 --num_complex_FUs=4 --num_ls_FUs=2 --num_float_FUs=4

info: Standard input is not a terminal, disabling listeners.
/home/chris/HY425/prog_assignment2/gem5/hy425
Beginning simulation!
build/X86/sim/simulate.cc:194: info: Entering event queue @ 0.  Starting simulation...
build/X86/sim/syscall_emul.hh:1015: warn: readlink() called on '/proc/self/exe' may yield unexpected results in various settings.
      Returning '/home/chris/HY425/prog_assignment2/gem5/hy425/benchmark3/bin/benchmark'
build/X86/sim/mem_state.cc:443: info: Increasing stack size by one page.
hmmcalibrate -- calibrate HMM search statistics
HMMER 2.3 (May 2003)
Copyright (C) 1992-2003 HHMI/Washington University School of Medicine
Freely distributed under the GNU General Public License (GPL)
- - - - - - - - - - - - - - - - - - - - - - - - - - - - - - - - - - - -
HMM file:                 ./benchmark3/data/bombesin.hmm.new
Length distribution mean: 325
Length distribution s.d.: 200
Number of samples:        5000
random seed:              1000000000
histogram(s) saved to:    [not saved]
- - - - - - - - - - - - - - - - - - - - - - - - - - - - - - - -

Exiting @ tick 69020967000 because a thread reached the max instruction count

real	5m13,718s
user	5m13,607s
sys	0m0,060s
-------------------------------------------------------
Global frequency set at 1000000000000 ticks per second
warn: No dot file generated. Please install pydot to generate the dot file and pdf.
build/X86/base/remote_gdb.cc:381: warn: Sockets disabled, not accepting gdb connections
gem5 Simulator System.  https://www.gem5.org
gem5 is copyrighted software; use the --copyright option for details.

gem5 version 22.0.0.2
gem5 compiled Dec 19 2023 11:16:18
gem5 started Dec 20 2023 23:48:56
gem5 executing on CPVM, pid 46931
command line: ../build/X86/gem5.opt -d ./benchmark4/m5out_LSQ:128._ROB:128._IFU:8._CFU:4._FFU:4._LSFU:2 ../configs/cs425_pa2/cs425_pa2.py -c ./benchmark4/bin/benchmark -o ./benchmark4/data/test.txt -I 50000000 --cpu-type=O3CPU --l1i_size=64kB --l1i_assoc=4 --l1d_size=64kB --l1d_assoc=4 --l2_size=256kB --l2_assoc=8 --bp-type=TournamentBP --btb_entries=1024 --LSQ_Entries=128 --numROB_Entries=128 --num_int_FUs=8 --num_complex_FUs=4 --num_ls_FUs=2 --num_float_FUs=4

info: Standard input is not a terminal, disabling listeners.
/home/chris/HY425/prog_assignment2/gem5/hy425
Beginning simulation!
build/X86/sim/simulate.cc:194: info: Entering event queue @ 0.  Starting simulation...
build/X86/sim/syscall_emul.hh:1015: warn: readlink() called on '/proc/self/exe' may yield unexpected results in various settings.
      Returning '/home/chris/HY425/prog_assignment2/gem5/hy425/benchmark4/bin/benchmark'
build/X86/sim/mem_state.cc:443: info: Increasing stack size by one page.
build/X86/sim/mem_state.cc:443: info: Increasing stack size by one page.
build/X86/sim/mem_state.cc:443: info: Increasing stack size by one page.
build/X86/sim/mem_state.cc:443: info: Increasing stack size by one page.
build/X86/sim/mem_state.cc:443: info: Increasing stack size by one page.
build/X86/sim/mem_state.cc:443: info: Increasing stack size by one page.

Sjeng version SPEC 1.0, Copyright (C) 2000-2005 Gian-Carlo Pascutto

SPEC Workload

build/X86/sim/mem_state.cc:443: info: Increasing stack size by one page.
build/X86/sim/mem_state.cc:443: info: Increasing stack size by one page.
build/X86/sim/mem_state.cc:443: info: Increasing stack size by one page.
  +----+----+----+----+----+----+----+----+
8 | *R |    |    |    | *K | *B |    | *R |
  +----+----+----+----+----+----+----+----+
7 |    |    |    | *N |    | *P | *P |    |
  +----+----+----+----+----+----+----+----+
6 | *P |    |    |    |    |    |    | *P |
  +----+----+----+----+----+----+----+----+
5 |    |    | *P |  P | *P |    |    | *Q |
  +----+----+----+----+----+----+----+----+
4 |  P | *P |    |    |  N |    |    |    |
  +----+----+----+----+----+----+----+----+
3 |    |    |    |  B |    |    |  P |  P |
  +----+----+----+----+----+----+----+----+
2 |    |  P |  Q |    |    |  P |    |    |
  +----+----+----+----+----+----+----+----+
1 |  R |    |    |    |  K |    |    |  R |
  +----+----+----+----+----+----+----+----+

     a    b    c    d    e    f    g    h

EPD: r3kb1r/3n1pp1/p6p/2pPp2q/Pp2N3/3B2PP/1PQ2P2/R3K2R w KQkq - bm d6; id "LCT2-POS-01";

Searching to 10 ply
Opening phase.
build/X86/sim/mem_state.cc:443: info: Increasing stack size by one page.
build/X86/sim/mem_state.cc:443: info: Increasing stack size by one page.
build/X86/sim/mem_state.cc:443: info: Increasing stack size by one page.
Time for move : 1000000
Exiting @ tick 398241267000 because a thread reached the max instruction count

real	15m8,444s
user	15m7,696s
sys	0m0,324s
-------------------------------------------------------
Global frequency set at 1000000000000 ticks per second
warn: No dot file generated. Please install pydot to generate the dot file and pdf.
build/X86/base/remote_gdb.cc:381: warn: Sockets disabled, not accepting gdb connections
gem5 Simulator System.  https://www.gem5.org
gem5 is copyrighted software; use the --copyright option for details.

gem5 version 22.0.0.2
gem5 compiled Dec 19 2023 11:16:18
gem5 started Dec 21 2023 00:04:05
gem5 executing on CPVM, pid 46965
command line: ../build/X86/gem5.opt -d ./benchmark5/m5out_LSQ:128._ROB:128._IFU:8._CFU:4._FFU:4._LSFU:2 ../configs/cs425_pa2/cs425_pa2.py -c ./benchmark5/bin/benchmark -o '20 reference.dat 0 1 ./benchmark5/data/100_100_130_cf_a.of' -I 50000000 --cpu-type=O3CPU --l1i_size=64kB --l1i_assoc=4 --l1d_size=64kB --l1d_assoc=4 --l2_size=256kB --l2_assoc=8 --bp-type=TournamentBP --btb_entries=1024 --LSQ_Entries=128 --numROB_Entries=128 --num_int_FUs=8 --num_complex_FUs=4 --num_ls_FUs=2 --num_float_FUs=4

info: Standard input is not a terminal, disabling listeners.
/home/chris/HY425/prog_assignment2/gem5/hy425
Beginning simulation!
build/X86/sim/simulate.cc:194: info: Entering event queue @ 0.  Starting simulation...
build/X86/sim/syscall_emul.hh:1015: warn: readlink() called on '/proc/self/exe' may yield unexpected results in various settings.
      Returning '/home/chris/HY425/prog_assignment2/gem5/hy425/benchmark5/bin/benchmark'
build/X86/sim/mem_state.cc:443: info: Increasing stack size by one page.
[...]

info: Standard input is not a terminal, disabling listeners.
/home/chris/HY425/prog_assignment2/gem5/hy425
Beginning simulation!
build/X86/sim/simulate.cc:194: info: Entering event queue @ 0.  Starting simulation...
build/X86/sim/syscall_emul.hh:1015: warn: readlink() called on '/proc/self/exe' may yield unexpected results in various settings.
      Returning '/home/chris/HY425/prog_assignment2/gem5/hy425/benchmark2/bin/benchmark'
build/X86/sim/mem_state.cc:443: info: Increasing stack size by one page.

MCF SPEC CPU2006 version 1.10
Copyright (c) 1998-2000 Zuse Institut Berlin (ZIB)
Copyright (c) 2000-2002 Andreas Loebel & ZIB
Copyright (c) 2003-2005 Andreas Loebel

Exiting @ tick 27936384000 because a thread reached the max instruction count

real	4m41,010s
user	4m40,892s
sys	0m0,072s
-------------------------------------------------------
Global frequency set at 1000000000000 ticks per second
warn: No dot file generated. Please install pydot to generate the dot file and pdf.
build/X86/base/remote_gdb.cc:381: warn: Sockets disabled, not accepting gdb connections
gem5 Simulator System.  https://www.gem5.org
gem5 is copyrighted software; use the --copyright option for details.

gem5 version 22.0.0.2
gem5 compiled Dec 19 2023 11:16:18
gem5 started Dec 21 2023 10:48:07
gem5 executing on CPVM, pid 48575
command line: ../build/X86/gem5.opt -d ./benchmark3/m5out_LSQ:128._ROB:256._IFU:8._CFU:4._FFU:4._LSFU:2 ../configs/cs425_pa2/cs425_pa2.py -c ./benchmark3/bin/benchmark -o ./benchmark3/data/bombesin.hmm.new -I 50000000 --cpu-type=O3CPU --l1i_size=64kB --l1i_assoc=4 --l1d_size=64kB --l1d_assoc=4 --l2_size=256kB --l2_assoc=8 --bp-type=TournamentBP --btb_entries=1024 --LSQ_Entries=128 --numROB_Entries=256 --num_int_FUs=8 --num_complex_FUs=4 --num_ls_FUs=2 --num_float_FUs=4

info: Standard input is not a terminal, disabling listeners.
/home/chris/HY425/prog_assignment2/gem5/hy425
Beginning simulation!
build/X86/sim/simulate.cc:194: info: Entering event queue @ 0.  Starting simulation...
build/X86/sim/syscall_emul.hh:1015: warn: readlink() called on '/proc/self/exe' may yield unexpected results in various settings.
      Returning '/home/chris/HY425/prog_assignment2/gem5/hy425/benchmark3/bin/benchmark'
build/X86/sim/mem_state.cc:443: info: Increasing stack size by one page.
hmmcalibrate -- calibrate HMM search statistics
HMMER 2.3 (May 2003)
Copyright (C) 1992-2003 HHMI/Washington University School of Medicine
Freely distributed under the GNU General Public License (GPL)
- - - - - - - - - - - - - - - - - - - - - - - - - - - - - - - - - - - -
HMM file:                 ./benchmark3/data/bombesin.hmm.new
Length distribution mean: 325
Length distribution s.d.: 200
Number of samples:        5000
random seed:              1000000000
histogram(s) saved to:    [not saved]
- - - - - - - - - - - - - - - - - - - - - - - - - - - - - - - -

Exiting @ tick 68195065000 because a thread reached the max instruction count

real	5m26,962s
user	5m26,829s
sys	0m0,036s
-------------------------------------------------------
Global frequency set at 1000000000000 ticks per second
warn: No dot file generated. Please install pydot to generate the dot file and pdf.
build/X86/base/remote_gdb.cc:381: warn: Sockets disabled, not accepting gdb connections
gem5 Simulator System.  https://www.gem5.org
gem5 is copyrighted software; use the --copyright option for details.

gem5 version 22.0.0.2
gem5 compiled Dec 19 2023 11:16:18
gem5 started Dec 21 2023 10:53:34
gem5 executing on CPVM, pid 48577
command line: ../build/X86/gem5.opt -d ./benchmark4/m5out_LSQ:128._ROB:256._IFU:8._CFU:4._FFU:4._LSFU:2 ../configs/cs425_pa2/cs425_pa2.py -c ./benchmark4/bin/benchmark -o ./benchmark4/data/test.txt -I 50000000 --cpu-type=O3CPU --l1i_size=64kB --l1i_assoc=4 --l1d_size=64kB --l1d_assoc=4 --l2_size=256kB --l2_assoc=8 --bp-type=TournamentBP --btb_entries=1024 --LSQ_Entries=128 --numROB_Entries=256 --num_int_FUs=8 --num_complex_FUs=4 --num_ls_FUs=2 --num_float_FUs=4

info: Standard input is not a terminal, disabling listeners.
/home/chris/HY425/prog_assignment2/gem5/hy425
Beginning simulation!
build/X86/sim/simulate.cc:194: info: Entering event queue @ 0.  Starting simulation...
build/X86/sim/syscall_emul.hh:1015: warn: readlink() called on '/proc/self/exe' may yield unexpected results in various settings.
      Returning '/home/chris/HY425/prog_assignment2/gem5/hy425/benchmark4/bin/benchmark'
build/X86/sim/mem_state.cc:443: info: Increasing stack size by one page.
build/X86/sim/mem_state.cc:443: info: Increasing stack size by one page.
build/X86/sim/mem_state.cc:443: info: Increasing stack size by one page.
build/X86/sim/mem_state.cc:443: info: Increasing stack size by one page.
build/X86/sim/mem_state.cc:443: info: Increasing stack size by one page.
build/X86/sim/mem_state.cc:443: info: Increasing stack size by one page.

Sjeng version SPEC 1.0, Copyright (C) 2000-2005 Gian-Carlo Pascutto

SPEC Workload

build/X86/sim/mem_state.cc:443: info: Increasing stack size by one page.
build/X86/sim/mem_state.cc:443: info: Increasing stack size by one page.
build/X86/sim/mem_state.cc:443: info: Increasing stack size by one page.
  +----+----+----+----+----+----+----+----+
8 | *R |    |    |    | *K | *B |    | *R |
  +----+----+----+----+----+----+----+----+
7 |    |    |    | *N |    | *P | *P |    |
  +----+----+----+----+----+----+----+----+
6 | *P |    |    |    |    |    |    | *P |
  +----+----+----+----+----+----+----+----+
5 |    |    | *P |  P | *P |    |    | *Q |
  +----+----+----+----+----+----+----+----+
4 |  P | *P |    |    |  N |    |    |    |
  +----+----+----+----+----+----+----+----+
3 |    |    |    |  B |    |    |  P |  P |
  +----+----+----+----+----+----+----+----+
2 |    |  P |  Q |    |    |  P |    |    |
  +----+----+----+----+----+----+----+----+
1 |  R |    |    |    |  K |    |    |  R |
  +----+----+----+----+----+----+----+----+

     a    b    c    d    e    f    g    h

EPD: r3kb1r/3n1pp1/p6p/2pPp2q/Pp2N3/3B2PP/1PQ2P2/R3K2R w KQkq - bm d6; id "LCT2-POS-01";

Searching to 10 ply
Opening phase.
build/X86/sim/mem_state.cc:443: info: Increasing stack size by one page.
build/X86/sim/mem_state.cc:443: info: Increasing stack size by one page.
build/X86/sim/mem_state.cc:443: info: Increasing stack size by one page.
Time for move : 1000000
Exiting @ tick 396279161000 because a thread reached the max instruction count

real	15m3,388s
user	15m2,740s
sys	0m0,284s
-------------------------------------------------------
Global frequency set at 1000000000000 ticks per second
warn: No dot file generated. Please install pydot to generate the dot file and pdf.
build/X86/base/remote_gdb.cc:381: warn: Sockets disabled, not accepting gdb connections
gem5 Simulator System.  https://www.gem5.org
gem5 is copyrighted software; use the --copyright option for details.

gem5 version 22.0.0.2
gem5 compiled Dec 19 2023 11:16:18
gem5 started Dec 21 2023 11:08:38
gem5 executing on CPVM, pid 48581
command line: ../build/X86/gem5.opt -d ./benchmark5/m5out_LSQ:128._ROB:256._IFU:8._CFU:4._FFU:4._LSFU:2 ../configs/cs425_pa2/cs425_pa2.py -c ./benchmark5/bin/benchmark -o '20 reference.dat 0 1 ./benchmark5/data/100_100_130_cf_a.of' -I 50000000 --cpu-type=O3CPU --l1i_size=64kB --l1i_assoc=4 --l1d_size=64kB --l1d_assoc=4 --l2_size=256kB --l2_assoc=8 --bp-type=TournamentBP --btb_entries=1024 --LSQ_Entries=128 --numROB_Entries=256 --num_int_FUs=8 --num_complex_FUs=4 --num_ls_FUs=2 --num_float_FUs=4

info: Standard input is not a terminal, disabling listeners.
/home/chris/HY425/prog_assignment2/gem5/hy425
Beginning simulation!
build/X86/sim/simulate.cc:194: info: Entering event queue @ 0.  Starting simulation...
build/X86/sim/syscall_emul.hh:1015: warn: readlink() called on '/proc/self/exe' may yield unexpected results in various settings.
      Returning '/home/chris/HY425/prog_assignment2/gem5/hy425/benchmark5/bin/benchmark'
build/X86/sim/mem_state.cc:443: info: Increasing stack size by one page.
MAIN_printInfo:
	grid size      : 100 x 100 x 130 = 1.30 * 10^6 Cells
	nTimeSteps     : 20
	result file    : reference.dat
	action         : nothing
	simulation type: channel flow
	obstacle file  : ./benchmark5/data/100_100_130_cf_a.of

Exiting @ tick 39366636000 because a thread reached the max instruction count

real	5m16,336s
user	5m16,124s
sys	0m0,136s
-------------------------------------------------------
./runall.sh 128 256 8 4 4 4
Global frequency set at 1000000000000 ticks per second
warn: No dot file generated. Please install pydot to generate the dot file and pdf.
build/X86/base/remote_gdb.cc:381: warn: Sockets disabled, not accepting gdb connections
gem5 Simulator System.  https://www.gem5.org
gem5 is copyrighted software; use the --copyright option for details.

gem5 version 22.0.0.2
gem5 compiled Dec 19 2023 11:16:18
gem5 started Dec 21 2023 11:13:54
gem5 executing on CPVM, pid 48584
command line: ../build/X86/gem5.opt -d ./benchmark1/m5out_LSQ:128._ROB:256._IFU:8._CFU:4._FFU:4._LSFU:4 ../configs/cs425_pa2/cs425_pa2.py -c ./benchmark1/bin/benchmark -o ./benchmark1/data/input.program -I 50000000 --cpu-type=O3CPU --l1i_size=64kB --l1i_assoc=4 --l1d_size=64kB --l1d_assoc=4 --l2_size=256kB --l2_assoc=8 --bp-type=TournamentBP --btb_entries=1024 --LSQ_Entries=128 --numROB_Entries=256 --num_int_FUs=8 --num_complex_FUs=4 --num_ls_FUs=4 --num_float_FUs=4

info: Standard input is not a terminal, disabling listeners.
/home/chris/HY425/prog_assignment2/gem5/hy425
Beginning simulation!
build/X86/sim/simulate.cc:194: info: Entering event queue @ 0.  Starting simulation...
build/X86/sim/syscall_emul.hh:1015: warn: readlink() called on '/proc/self/exe' may yield unexpected results in various settings.
      Returning '/home/chris/HY425/prog_assignment2/gem5/hy425/benchmark1/bin/benchmark'
build/X86/sim/mem_state.cc:443: info: Increasing stack size by one page.
spec_init
Loading Input Data
Duplicating 8070616 bytes
build/X86/arch/x86/generated/exec-ns.cc.inc:27: warn: instruction 'prefetch_nta' unimplemented
build/X86/arch/x86/generated/exec-ns.cc.inc:27: warn: instruction 'prefetch_nta' unimplemented
build/X86/arch/generic/debugfaults.hh:145: warn: MOVNTI: Ignoring non-temporal hint, modeling as cacheable!
Duplicating 16141232 bytes
Duplicating 32282464 bytes
Duplicating 2543936 bytes
Input data 67108864 bytes in length
Compressing Input Data, level 5
Exiting @ tick 373802702000 because a thread reached the max instruction count

real	52m57,382s
user	52m55,194s
sys	0m1,818s
-------------------------------------------------------
Global frequency set at 1000000000000 ticks per second
warn: No dot file generated. Please install pydot to generate the dot file and pdf.
build/X86/base/remote_gdb.cc:381: warn: Sockets disabled, not accepting gdb connections
gem5 Simulator System.  https://www.gem5.org
gem5 is copyrighted software; use the --copyright option for details.

gem5 version 22.0.0.2
gem5 compiled Dec 19 2023 11:16:18
gem5 started Dec 21 2023 12:06:51
gem5 executing on CPVM, pid 48609
command line: ../build/X86/gem5.opt -d ./benchmark2/m5out_LSQ:128._ROB:256._IFU:8._CFU:4._FFU:4._LSFU:4 ../configs/cs425_pa2/cs425_pa2.py -c ./benchmark2/bin/benchmark -o ./benchmark2/data/inp.in -I 50000000 --cpu-type=O3CPU --l1i_size=64kB --l1i_assoc=4 --l1d_size=64kB --l1d_assoc=4 --l2_size=256kB --l2_assoc=8 --bp-type=TournamentBP --btb_entries=1024 --LSQ_Entries=128 --numROB_Entries=256 --num_int_FUs=8 --num_complex_FUs=4 --num_ls_FUs=4 --num_float_FUs=4

info: Standard input is not a terminal, disabling listeners.
/home/chris/HY425/prog_assignment2/gem5/hy425
Beginning simulation!
build/X86/sim/simulate.cc:194: info: Entering event queue @ 0.  Starting simulation...
build/X86/sim/syscall_emul.hh:1015: warn: readlink() called on '/proc/self/exe' may yield unexpected results in various settings.
      Returning '/home/chris/HY425/prog_assignment2/gem5/hy425/benchmark2/bin/benchmark'
build/X86/sim/mem_state.cc:443: info: Increasing stack size by one page.

MCF SPEC CPU2006 version 1.10
Copyright (c) 1998-2000 Zuse Institut Berlin (ZIB)
Copyright (c) 2000-2002 Andreas Loebel & ZIB
Copyright (c) 2003-2005 Andreas Loebel

Exiting @ tick 27881789000 because a thread reached the max instruction count

real	4m34,509s
user	4m34,443s
sys	0m0,032s
-------------------------------------------------------
Global frequency set at 1000000000000 ticks per second
warn: No dot file generated. Please install pydot to generate the dot file and pdf.
build/X86/base/remote_gdb.cc:381: warn: Sockets disabled, not accepting gdb connections
gem5 Simulator System.  https://www.gem5.org
gem5 is copyrighted software; use the --copyright option for details.

gem5 version 22.0.0.2
gem5 compiled Dec 19 2023 11:16:18
gem5 started Dec 21 2023 12:11:26
gem5 executing on CPVM, pid 48612
command line: ../build/X86/gem5.opt -d ./benchmark3/m5out_LSQ:128._ROB:256._IFU:8._CFU:4._FFU:4._LSFU:4 ../configs/cs425_pa2/cs425_pa2.py -c ./benchmark3/bin/benchmark -o ./benchmark3/data/bombesin.hmm.new -I 50000000 --cpu-type=O3CPU --l1i_size=64kB --l1i_assoc=4 --l1d_size=64kB --l1d_assoc=4 --l2_size=256kB --l2_assoc=8 --bp-type=TournamentBP --btb_entries=1024 --LSQ_Entries=128 --numROB_Entries=256 --num_int_FUs=8 --num_complex_FUs=4 --num_ls_FUs=4 --num_float_FUs=4

info: Standard input is not a terminal, disabling listeners.
/home/chris/HY425/prog_assignment2/gem5/hy425
Beginning simulation!
build/X86/sim/simulate.cc:194: info: Entering event queue @ 0.  Starting simulation...
build/X86/sim/syscall_emul.hh:1015: warn: readlink() called on '/proc/self/exe' may yield unexpected results in various settings.
      Returning '/home/chris/HY425/prog_assignment2/gem5/hy425/benchmark3/bin/benchmark'
build/X86/sim/mem_state.cc:443: info: Increasing stack size by one page.
hmmcalibrate -- calibrate HMM search statistics
HMMER 2.3 (May 2003)
Copyright (C) 1992-2003 HHMI/Washington University School of Medicine
Freely distributed under the GNU General Public License (GPL)
- - - - - - - - - - - - - - - - - - - - - - - - - - - - - - - - - - - -
HMM file:                 ./benchmark3/data/bombesin.hmm.new
Length distribution mean: 325
Length distribution s.d.: 200
Number of samples:        5000
random seed:              1000000000
histogram(s) saved to:    [not saved]
- - - - - - - - - - - - - - - - - - - - - - - - - - - - - - - -

Exiting @ tick 67186201000 because a thread reached the max instruction count

real	5m16,846s
user	5m16,692s
sys	0m0,064s
-------------------------------------------------------
Global frequency set at 1000000000000 ticks per second
warn: No dot file generated. Please install pydot to generate the dot file and pdf.
build/X86/base/remote_gdb.cc:381: warn: Sockets disabled, not accepting gdb connections
gem5 Simulator System.  https://www.gem5.org
gem5 is copyrighted software; use the --copyright option for details.

gem5 version 22.0.0.2
gem5 compiled Dec 19 2023 11:16:18
gem5 started Dec 21 2023 12:16:43
gem5 executing on CPVM, pid 48613
command line: ../build/X86/gem5.opt -d ./benchmark4/m5out_LSQ:128._ROB:256._IFU:8._CFU:4._FFU:4._LSFU:4 ../configs/cs425_pa2/cs425_pa2.py -c ./benchmark4/bin/benchmark -o ./benchmark4/data/test.txt -I 50000000 --cpu-type=O3CPU --l1i_size=64kB --l1i_assoc=4 --l1d_size=64kB --l1d_assoc=4 --l2_size=256kB --l2_assoc=8 --bp-type=TournamentBP --btb_entries=1024 --LSQ_Entries=128 --numROB_Entries=256 --num_int_FUs=8 --num_complex_FUs=4 --num_ls_FUs=4 --num_float_FUs=4

info: Standard input is not a terminal, disabling listeners.
/home/chris/HY425/prog_assignment2/gem5/hy425
Beginning simulation!
build/X86/sim/simulate.cc:194: info: Entering event queue @ 0.  Starting simulation...
build/X86/sim/syscall_emul.hh:1015: warn: readlink() called on '/proc/self/exe' may yield unexpected results in various settings.
      Returning '/home/chris/HY425/prog_assignment2/gem5/hy425/benchmark4/bin/benchmark'
build/X86/sim/mem_state.cc:443: info: Increasing stack size by one page.
build/X86/sim/mem_state.cc:443: info: Increasing stack size by one page.
build/X86/sim/mem_state.cc:443: info: Increasing stack size by one page.
build/X86/sim/mem_state.cc:443: info: Increasing stack size by one page.
build/X86/sim/mem_state.cc:443: info: Increasing stack size by one page.
build/X86/sim/mem_state.cc:443: info: Increasing stack size by one page.

Sjeng version SPEC 1.0, Copyright (C) 2000-2005 Gian-Carlo Pascutto

SPEC Workload

build/X86/sim/mem_state.cc:443: info: Increasing stack size by one page.
build/X86/sim/mem_state.cc:443: info: Increasing stack size by one page.
build/X86/sim/mem_state.cc:443: info: Increasing stack size by one page.
  +----+----+----+----+----+----+----+----+
8 | *R |    |    |    | *K | *B |    | *R |
  +----+----+----+----+----+----+----+----+
7 |    |    |    | *N |    | *P | *P |    |
  +----+----+----+----+----+----+----+----+
6 | *P |    |    |    |    |    |    | *P |
  +----+----+----+----+----+----+----+----+
5 |    |    | *P |  P | *P |    |    | *Q |
  +----+----+----+----+----+----+----+----+
4 |  P | *P |    |    |  N |    |    |    |
  +----+----+----+----+----+----+----+----+
3 |    |    |    |  B |    |    |  P |  P |
  +----+----+----+----+----+----+----+----+
2 |    |  P |  Q |    |    |  P |    |    |
  +----+----+----+----+----+----+----+----+
1 |  R |    |    |    |  K |    |    |  R |
  +----+----+----+----+----+----+----+----+

     a    b    c    d    e    f    g    h

EPD: r3kb1r/3n1pp1/p6p/2pPp2q/Pp2N3/3B2PP/1PQ2P2/R3K2R w KQkq - bm d6; id "LCT2-POS-01";

Searching to 10 ply
Opening phase.
build/X86/sim/mem_state.cc:443: info: Increasing stack size by one page.
build/X86/sim/mem_state.cc:443: info: Increasing stack size by one page.
build/X86/sim/mem_state.cc:443: info: Increasing stack size by one page.
Time for move : 1000000
Exiting @ tick 396649118000 because a thread reached the max instruction count

real	15m10,027s
user	15m9,255s
sys	0m0,344s
-------------------------------------------------------
Global frequency set at 1000000000000 ticks per second
warn: No dot file generated. Please install pydot to generate the dot file and pdf.
build/X86/base/remote_gdb.cc:381: warn: Sockets disabled, not accepting gdb connections
gem5 Simulator System.  https://www.gem5.org
gem5 is copyrighted software; use the --copyright option for details.

gem5 version 22.0.0.2
gem5 compiled Dec 19 2023 11:16:18
gem5 started Dec 21 2023 12:31:53
gem5 executing on CPVM, pid 48627
command line: ../build/X86/gem5.opt -d ./benchmark5/m5out_LSQ:128._ROB:256._IFU:8._CFU:4._FFU:4._LSFU:4 ../configs/cs425_pa2/cs425_pa2.py -c ./benchmark5/bin/benchmark -o '20 reference.dat 0 1 ./benchmark5/data/100_100_130_cf_a.of' -I 50000000 --cpu-type=O3CPU --l1i_size=64kB --l1i_assoc=4 --l1d_size=64kB --l1d_assoc=4 --l2_size=256kB --l2_assoc=8 --bp-type=TournamentBP --btb_entries=1024 --LSQ_Entries=128 --numROB_Entries=256 --num_int_FUs=8 --num_complex_FUs=4 --num_ls_FUs=4 --num_float_FUs=4

info: Standard input is not a terminal, disabling listeners.
/home/chris/HY425/prog_assignment2/gem5/hy425
Beginning simulation!
build/X86/sim/simulate.cc:194: info: Entering event queue @ 0.  Starting simulation...
build/X86/sim/syscall_emul.hh:1015: warn: readlink() called on '/proc/self/exe' may yield unexpected results in various settings.
      Returning '/home/chris/HY425/prog_assignment2/gem5/hy425/benchmark5/bin/benchmark'
build/X86/sim/mem_state.cc:443: info: Increasing stack size by one page.
MAIN_printInfo:
	grid size      : 100 x 100 x 130 = 1.30 * 10^6 Cells
	nTimeSteps     : 20
	result file    : reference.dat
	action         : nothing
	simulation type: channel flow
	obstacle file  : ./benchmark5/data/100_100_130_cf_a.of

Exiting @ tick 39313995000 because a thread reached the max instruction count

real	5m13,806s
user	5m13,626s
sys	0m0,104s
-------------------------------------------------------
