
---------- Begin Simulation Statistics ----------
simSeconds                                   0.068178                       # Number of seconds simulated (Second)
simTicks                                  68178056000                       # Number of ticks simulated (Tick)
finalTick                                 68178056000                       # Number of ticks from beginning of simulation (restored from checkpoints and never reset) (Tick)
simFreq                                  1000000000000                       # The number of ticks per simulated second ((Tick/Second))
hostSeconds                                    316.65                       # Real time elapsed on the host (Second)
hostTickRate                                215308600                       # The number of ticks simulated per host second (ticks/s) ((Tick/Second))
hostMemory                                    8539556                       # Number of bytes of host memory used (Byte)
simInsts                                     50000000                       # Number of instructions simulated (Count)
simOps                                       65070784                       # Number of ops (including micro ops) simulated (Count)
hostInstRate                                   157902                       # Simulator instruction rate (inst/s) ((Count/Second))
hostOpRate                                     205496                       # Simulator op (including micro ops) rate (op/s) ((Count/Second))
system.clk_domain.clock                          1000                       # Clock period in ticks (Tick)
system.clk_domain.voltage_domain.voltage            1                       # Voltage in Volts (Volt)
system.cpu.numCycles                         68178089                       # Number of cpu cycles simulated (Cycle)
system.cpu.numWorkItemsStarted                      0                       # Number of work items this cpu started (Count)
system.cpu.numWorkItemsCompleted                    0                       # Number of work items this cpu completed (Count)
system.cpu.instsAdded                        84741794                       # Number of instructions added to the IQ (excludes non-spec) (Count)
system.cpu.nonSpecInstsAdded                     1212                       # Number of non-speculative instructions added to the IQ (Count)
system.cpu.instsIssued                       75211289                       # Number of instructions issued (Count)
system.cpu.squashedInstsIssued                   9747                       # Number of squashed instructions issued (Count)
system.cpu.squashedInstsExamined             19672119                       # Number of squashed instructions iterated over during squash; mainly for profiling (Count)
system.cpu.squashedOperandsExamined          45630404                       # Number of squashed operands that are examined and possibly removed from graph (Count)
system.cpu.squashedNonSpecRemoved                 882                       # Number of squashed non-spec instructions that were removed (Count)
system.cpu.numIssuedDist::samples            68142766                       # Number of insts issued each cycle (Count)
system.cpu.numIssuedDist::mean               1.103731                       # Number of insts issued each cycle (Count)
system.cpu.numIssuedDist::stdev              1.277619                       # Number of insts issued each cycle (Count)
system.cpu.numIssuedDist::underflows                0      0.00%      0.00% # Number of insts issued each cycle (Count)
system.cpu.numIssuedDist::0                  29763466     43.68%     43.68% # Number of insts issued each cycle (Count)
system.cpu.numIssuedDist::1                  17231947     25.29%     68.97% # Number of insts issued each cycle (Count)
system.cpu.numIssuedDist::2                  10652797     15.63%     84.60% # Number of insts issued each cycle (Count)
system.cpu.numIssuedDist::3                   6758566      9.92%     94.52% # Number of insts issued each cycle (Count)
system.cpu.numIssuedDist::4                   2590956      3.80%     98.32% # Number of insts issued each cycle (Count)
system.cpu.numIssuedDist::5                    878291      1.29%     99.61% # Number of insts issued each cycle (Count)
system.cpu.numIssuedDist::6                    228212      0.33%     99.94% # Number of insts issued each cycle (Count)
system.cpu.numIssuedDist::7                     34749      0.05%     99.99% # Number of insts issued each cycle (Count)
system.cpu.numIssuedDist::8                      3782      0.01%    100.00% # Number of insts issued each cycle (Count)
system.cpu.numIssuedDist::overflows                 0      0.00%    100.00% # Number of insts issued each cycle (Count)
system.cpu.numIssuedDist::min_value                 0                       # Number of insts issued each cycle (Count)
system.cpu.numIssuedDist::max_value                 8                       # Number of insts issued each cycle (Count)
system.cpu.numIssuedDist::total              68142766                       # Number of insts issued each cycle (Count)
system.cpu.statFuBusy::No_OpClass                   0      0.00%      0.00% # attempts to use FU when none available (Count)
system.cpu.statFuBusy::IntAlu                  214454     14.19%     14.19% # attempts to use FU when none available (Count)
system.cpu.statFuBusy::IntMult                      0      0.00%     14.19% # attempts to use FU when none available (Count)
system.cpu.statFuBusy::IntDiv                       0      0.00%     14.19% # attempts to use FU when none available (Count)
system.cpu.statFuBusy::FloatAdd                 41638      2.75%     16.94% # attempts to use FU when none available (Count)
system.cpu.statFuBusy::FloatCmp                     0      0.00%     16.94% # attempts to use FU when none available (Count)
system.cpu.statFuBusy::FloatCvt                     0      0.00%     16.94% # attempts to use FU when none available (Count)
system.cpu.statFuBusy::FloatMult                    0      0.00%     16.94% # attempts to use FU when none available (Count)
system.cpu.statFuBusy::FloatMultAcc                 0      0.00%     16.94% # attempts to use FU when none available (Count)
system.cpu.statFuBusy::FloatDiv                     0      0.00%     16.94% # attempts to use FU when none available (Count)
system.cpu.statFuBusy::FloatMisc                    0      0.00%     16.94% # attempts to use FU when none available (Count)
system.cpu.statFuBusy::FloatSqrt                    0      0.00%     16.94% # attempts to use FU when none available (Count)
system.cpu.statFuBusy::SimdAdd                      0      0.00%     16.94% # attempts to use FU when none available (Count)
system.cpu.statFuBusy::SimdAddAcc                   0      0.00%     16.94% # attempts to use FU when none available (Count)
system.cpu.statFuBusy::SimdAlu                    603      0.04%     16.98% # attempts to use FU when none available (Count)
system.cpu.statFuBusy::SimdCmp                      1      0.00%     16.98% # attempts to use FU when none available (Count)
system.cpu.statFuBusy::SimdCvt                   2040      0.13%     17.12% # attempts to use FU when none available (Count)
system.cpu.statFuBusy::SimdMisc                    21      0.00%     17.12% # attempts to use FU when none available (Count)
system.cpu.statFuBusy::SimdMult                     0      0.00%     17.12% # attempts to use FU when none available (Count)
system.cpu.statFuBusy::SimdMultAcc                  0      0.00%     17.12% # attempts to use FU when none available (Count)
system.cpu.statFuBusy::SimdShift                   17      0.00%     17.12% # attempts to use FU when none available (Count)
system.cpu.statFuBusy::SimdShiftAcc                 0      0.00%     17.12% # attempts to use FU when none available (Count)
system.cpu.statFuBusy::SimdDiv                      0      0.00%     17.12% # attempts to use FU when none available (Count)
system.cpu.statFuBusy::SimdSqrt                     0      0.00%     17.12% # attempts to use FU when none available (Count)
system.cpu.statFuBusy::SimdFloatAdd                18      0.00%     17.12% # attempts to use FU when none available (Count)
system.cpu.statFuBusy::SimdFloatAlu                 0      0.00%     17.12% # attempts to use FU when none available (Count)
system.cpu.statFuBusy::SimdFloatCmp                 0      0.00%     17.12% # attempts to use FU when none available (Count)
system.cpu.statFuBusy::SimdFloatCvt               109      0.01%     17.13% # attempts to use FU when none available (Count)
system.cpu.statFuBusy::SimdFloatDiv                 0      0.00%     17.13% # attempts to use FU when none available (Count)
system.cpu.statFuBusy::SimdFloatMisc                0      0.00%     17.13% # attempts to use FU when none available (Count)
system.cpu.statFuBusy::SimdFloatMult                1      0.00%     17.13% # attempts to use FU when none available (Count)
system.cpu.statFuBusy::SimdFloatMultAcc             0      0.00%     17.13% # attempts to use FU when none available (Count)
system.cpu.statFuBusy::SimdFloatSqrt                0      0.00%     17.13% # attempts to use FU when none available (Count)
system.cpu.statFuBusy::SimdReduceAdd                0      0.00%     17.13% # attempts to use FU when none available (Count)
system.cpu.statFuBusy::SimdReduceAlu                0      0.00%     17.13% # attempts to use FU when none available (Count)
system.cpu.statFuBusy::SimdReduceCmp                0      0.00%     17.13% # attempts to use FU when none available (Count)
system.cpu.statFuBusy::SimdFloatReduceAdd            0      0.00%     17.13% # attempts to use FU when none available (Count)
system.cpu.statFuBusy::SimdFloatReduceCmp            0      0.00%     17.13% # attempts to use FU when none available (Count)
system.cpu.statFuBusy::SimdAes                      0      0.00%     17.13% # attempts to use FU when none available (Count)
system.cpu.statFuBusy::SimdAesMix                   0      0.00%     17.13% # attempts to use FU when none available (Count)
system.cpu.statFuBusy::SimdSha1Hash                 0      0.00%     17.13% # attempts to use FU when none available (Count)
system.cpu.statFuBusy::SimdSha1Hash2                0      0.00%     17.13% # attempts to use FU when none available (Count)
system.cpu.statFuBusy::SimdSha256Hash               0      0.00%     17.13% # attempts to use FU when none available (Count)
system.cpu.statFuBusy::SimdSha256Hash2              0      0.00%     17.13% # attempts to use FU when none available (Count)
system.cpu.statFuBusy::SimdShaSigma2                0      0.00%     17.13% # attempts to use FU when none available (Count)
system.cpu.statFuBusy::SimdShaSigma3                0      0.00%     17.13% # attempts to use FU when none available (Count)
system.cpu.statFuBusy::SimdPredAlu                  0      0.00%     17.13% # attempts to use FU when none available (Count)
system.cpu.statFuBusy::MemRead                1056292     69.88%     87.01% # attempts to use FU when none available (Count)
system.cpu.statFuBusy::MemWrite                 28465      1.88%     88.90% # attempts to use FU when none available (Count)
system.cpu.statFuBusy::FloatMemRead            167667     11.09%     99.99% # attempts to use FU when none available (Count)
system.cpu.statFuBusy::FloatMemWrite              150      0.01%    100.00% # attempts to use FU when none available (Count)
system.cpu.statFuBusy::IprAccess                    0      0.00%    100.00% # attempts to use FU when none available (Count)
system.cpu.statFuBusy::InstPrefetch                 0      0.00%    100.00% # attempts to use FU when none available (Count)
system.cpu.statIssuedInstType_0::No_OpClass        20401      0.03%      0.03% # Number of instructions issued per FU type, per thread (Count)
system.cpu.statIssuedInstType_0::IntAlu      42222686     56.14%     56.17% # Number of instructions issued per FU type, per thread (Count)
system.cpu.statIssuedInstType_0::IntMult        70960      0.09%     56.26% # Number of instructions issued per FU type, per thread (Count)
system.cpu.statIssuedInstType_0::IntDiv        642187      0.85%     57.11% # Number of instructions issued per FU type, per thread (Count)
system.cpu.statIssuedInstType_0::FloatAdd      1419333      1.89%     59.00% # Number of instructions issued per FU type, per thread (Count)
system.cpu.statIssuedInstType_0::FloatCmp            0      0.00%     59.00% # Number of instructions issued per FU type, per thread (Count)
system.cpu.statIssuedInstType_0::FloatCvt            0      0.00%     59.00% # Number of instructions issued per FU type, per thread (Count)
system.cpu.statIssuedInstType_0::FloatMult            0      0.00%     59.00% # Number of instructions issued per FU type, per thread (Count)
system.cpu.statIssuedInstType_0::FloatMultAcc            0      0.00%     59.00% # Number of instructions issued per FU type, per thread (Count)
system.cpu.statIssuedInstType_0::FloatDiv            0      0.00%     59.00% # Number of instructions issued per FU type, per thread (Count)
system.cpu.statIssuedInstType_0::FloatMisc            0      0.00%     59.00% # Number of instructions issued per FU type, per thread (Count)
system.cpu.statIssuedInstType_0::FloatSqrt            0      0.00%     59.00% # Number of instructions issued per FU type, per thread (Count)
system.cpu.statIssuedInstType_0::SimdAdd          508      0.00%     59.00% # Number of instructions issued per FU type, per thread (Count)
system.cpu.statIssuedInstType_0::SimdAddAcc            0      0.00%     59.00% # Number of instructions issued per FU type, per thread (Count)
system.cpu.statIssuedInstType_0::SimdAlu        95407      0.13%     59.13% # Number of instructions issued per FU type, per thread (Count)
system.cpu.statIssuedInstType_0::SimdCmp          220      0.00%     59.13% # Number of instructions issued per FU type, per thread (Count)
system.cpu.statIssuedInstType_0::SimdCvt        98968      0.13%     59.26% # Number of instructions issued per FU type, per thread (Count)
system.cpu.statIssuedInstType_0::SimdMisc       216554      0.29%     59.55% # Number of instructions issued per FU type, per thread (Count)
system.cpu.statIssuedInstType_0::SimdMult            0      0.00%     59.55% # Number of instructions issued per FU type, per thread (Count)
system.cpu.statIssuedInstType_0::SimdMultAcc            0      0.00%     59.55% # Number of instructions issued per FU type, per thread (Count)
system.cpu.statIssuedInstType_0::SimdShift          189      0.00%     59.55% # Number of instructions issued per FU type, per thread (Count)
system.cpu.statIssuedInstType_0::SimdShiftAcc            0      0.00%     59.55% # Number of instructions issued per FU type, per thread (Count)
system.cpu.statIssuedInstType_0::SimdDiv            0      0.00%     59.55% # Number of instructions issued per FU type, per thread (Count)
system.cpu.statIssuedInstType_0::SimdSqrt            0      0.00%     59.55% # Number of instructions issued per FU type, per thread (Count)
system.cpu.statIssuedInstType_0::SimdFloatAdd       187405      0.25%     59.80% # Number of instructions issued per FU type, per thread (Count)
system.cpu.statIssuedInstType_0::SimdFloatAlu            0      0.00%     59.80% # Number of instructions issued per FU type, per thread (Count)
system.cpu.statIssuedInstType_0::SimdFloatCmp            0      0.00%     59.80% # Number of instructions issued per FU type, per thread (Count)
system.cpu.statIssuedInstType_0::SimdFloatCvt       303915      0.40%     60.20% # Number of instructions issued per FU type, per thread (Count)
system.cpu.statIssuedInstType_0::SimdFloatDiv        37475      0.05%     60.25% # Number of instructions issued per FU type, per thread (Count)
system.cpu.statIssuedInstType_0::SimdFloatMisc            0      0.00%     60.25% # Number of instructions issued per FU type, per thread (Count)
system.cpu.statIssuedInstType_0::SimdFloatMult        38680      0.05%     60.30% # Number of instructions issued per FU type, per thread (Count)
system.cpu.statIssuedInstType_0::SimdFloatMultAcc            0      0.00%     60.30% # Number of instructions issued per FU type, per thread (Count)
system.cpu.statIssuedInstType_0::SimdFloatSqrt            0      0.00%     60.30% # Number of instructions issued per FU type, per thread (Count)
system.cpu.statIssuedInstType_0::SimdReduceAdd            0      0.00%     60.30% # Number of instructions issued per FU type, per thread (Count)
system.cpu.statIssuedInstType_0::SimdReduceAlu            0      0.00%     60.30% # Number of instructions issued per FU type, per thread (Count)
system.cpu.statIssuedInstType_0::SimdReduceCmp            0      0.00%     60.30% # Number of instructions issued per FU type, per thread (Count)
system.cpu.statIssuedInstType_0::SimdFloatReduceAdd            0      0.00%     60.30% # Number of instructions issued per FU type, per thread (Count)
system.cpu.statIssuedInstType_0::SimdFloatReduceCmp            0      0.00%     60.30% # Number of instructions issued per FU type, per thread (Count)
system.cpu.statIssuedInstType_0::SimdAes            0      0.00%     60.30% # Number of instructions issued per FU type, per thread (Count)
system.cpu.statIssuedInstType_0::SimdAesMix            0      0.00%     60.30% # Number of instructions issued per FU type, per thread (Count)
system.cpu.statIssuedInstType_0::SimdSha1Hash            0      0.00%     60.30% # Number of instructions issued per FU type, per thread (Count)
system.cpu.statIssuedInstType_0::SimdSha1Hash2            0      0.00%     60.30% # Number of instructions issued per FU type, per thread (Count)
system.cpu.statIssuedInstType_0::SimdSha256Hash            0      0.00%     60.30% # Number of instructions issued per FU type, per thread (Count)
system.cpu.statIssuedInstType_0::SimdSha256Hash2            0      0.00%     60.30% # Number of instructions issued per FU type, per thread (Count)
system.cpu.statIssuedInstType_0::SimdShaSigma2            0      0.00%     60.30% # Number of instructions issued per FU type, per thread (Count)
system.cpu.statIssuedInstType_0::SimdShaSigma3            0      0.00%     60.30% # Number of instructions issued per FU type, per thread (Count)
system.cpu.statIssuedInstType_0::SimdPredAlu            0      0.00%     60.30% # Number of instructions issued per FU type, per thread (Count)
system.cpu.statIssuedInstType_0::MemRead     25067240     33.33%     93.63% # Number of instructions issued per FU type, per thread (Count)
system.cpu.statIssuedInstType_0::MemWrite      3780751      5.03%     98.66% # Number of instructions issued per FU type, per thread (Count)
system.cpu.statIssuedInstType_0::FloatMemRead       808784      1.08%     99.73% # Number of instructions issued per FU type, per thread (Count)
system.cpu.statIssuedInstType_0::FloatMemWrite       199626      0.27%    100.00% # Number of instructions issued per FU type, per thread (Count)
system.cpu.statIssuedInstType_0::IprAccess            0      0.00%    100.00% # Number of instructions issued per FU type, per thread (Count)
system.cpu.statIssuedInstType_0::InstPrefetch            0      0.00%    100.00% # Number of instructions issued per FU type, per thread (Count)
system.cpu.statIssuedInstType_0::total       75211289                       # Number of instructions issued per FU type, per thread (Count)
system.cpu.issueRate                         1.103159                       # Inst issue rate ((Count/Cycle))
system.cpu.fuBusy                             1511476                       # FU busy when requested (Count)
system.cpu.fuBusyRate                        0.020096                       # FU busy rate (busy events/executed inst) ((Count/Count))
system.cpu.intInstQueueReads                212808463                       # Number of integer instruction queue reads (Count)
system.cpu.intInstQueueWrites                99288424                       # Number of integer instruction queue writes (Count)
system.cpu.intInstQueueWakeupAccesses        71031539                       # Number of integer instruction queue wakeup accesses (Count)
system.cpu.fpInstQueueReads                   7278099                       # Number of floating instruction queue reads (Count)
system.cpu.fpInstQueueWrites                  5133895                       # Number of floating instruction queue writes (Count)
system.cpu.fpInstQueueWakeupAccesses          3503992                       # Number of floating instruction queue wakeup accesses (Count)
system.cpu.vecInstQueueReads                        0                       # Number of vector instruction queue reads (Count)
system.cpu.vecInstQueueWrites                       0                       # Number of vector instruction queue writes (Count)
system.cpu.vecInstQueueWakeupAccesses               0                       # Number of vector instruction queue wakeup accesses (Count)
system.cpu.intAluAccesses                    72957098                       # Number of integer alu accesses (Count)
system.cpu.fpAluAccesses                      3745266                       # Number of floating point alu accesses (Count)
system.cpu.vecAluAccesses                           0                       # Number of vector alu accesses (Count)
system.cpu.numInsts                          74649527                       # Number of executed instructions (Count)
system.cpu.numLoadInsts                      25483099                       # Number of load instructions executed (Count)
system.cpu.numSquashedInsts                    561757                       # Number of squashed instructions skipped in execute (Count)
system.cpu.numSwp                                   0                       # Number of swp insts executed (Count)
system.cpu.numNop                                   0                       # Number of nop insts executed (Count)
system.cpu.numRefs                           29400605                       # Number of memory reference insts executed (Count)
system.cpu.numBranches                        3072090                       # Number of branches executed (Count)
system.cpu.numStoreInsts                      3917506                       # Number of stores executed (Count)
system.cpu.numRate                           1.094920                       # Inst execution rate ((Count/Cycle))
system.cpu.timesIdled                             789                       # Number of times that the entire CPU went into an idle state and unscheduled itself (Count)
system.cpu.idleCycles                           35323                       # Total number of cycles that the CPU has spent unscheduled due to idling (Cycle)
system.cpu.committedInsts                    50000000                       # Number of Instructions Simulated (Count)
system.cpu.committedOps                      65070784                       # Number of Ops (including micro ops) Simulated (Count)
system.cpu.cpi                               1.363562                       # CPI: Cycles Per Instruction ((Cycle/Count))
system.cpu.totalCpi                          1.363562                       # CPI: Total CPI of All Threads ((Cycle/Count))
system.cpu.ipc                               0.733373                       # IPC: Instructions Per Cycle ((Count/Cycle))
system.cpu.totalIpc                          0.733373                       # IPC: Total IPC of All Threads ((Count/Cycle))
system.cpu.intRegfileReads                   96018661                       # Number of integer regfile reads (Count)
system.cpu.intRegfileWrites                  62941716                       # Number of integer regfile writes (Count)
system.cpu.fpRegfileReads                     2678508                       # Number of floating regfile reads (Count)
system.cpu.fpRegfileWrites                    3072140                       # Number of floating regfile writes (Count)
system.cpu.ccRegfileReads                    20153391                       # number of cc regfile reads (Count)
system.cpu.ccRegfileWrites                   28112537                       # number of cc regfile writes (Count)
system.cpu.miscRegfileReads                  36071027                       # number of misc regfile reads (Count)
system.cpu.MemDepUnit__0.insertedLoads       28476782                       # Number of loads inserted to the mem dependence unit. (Count)
system.cpu.MemDepUnit__0.insertedStores       4795477                       # Number of stores inserted to the mem dependence unit. (Count)
system.cpu.MemDepUnit__0.conflictingLoads      9636075                       # Number of conflicting loads. (Count)
system.cpu.MemDepUnit__0.conflictingStores      1977938                       # Number of conflicting stores. (Count)
system.cpu.MemDepUnit__1.insertedLoads              0                       # Number of loads inserted to the mem dependence unit. (Count)
system.cpu.MemDepUnit__1.insertedStores             0                       # Number of stores inserted to the mem dependence unit. (Count)
system.cpu.MemDepUnit__1.conflictingLoads            0                       # Number of conflicting loads. (Count)
system.cpu.MemDepUnit__1.conflictingStores            0                       # Number of conflicting stores. (Count)
system.cpu.MemDepUnit__2.insertedLoads              0                       # Number of loads inserted to the mem dependence unit. (Count)
system.cpu.MemDepUnit__2.insertedStores             0                       # Number of stores inserted to the mem dependence unit. (Count)
system.cpu.MemDepUnit__2.conflictingLoads            0                       # Number of conflicting loads. (Count)
system.cpu.MemDepUnit__2.conflictingStores            0                       # Number of conflicting stores. (Count)
system.cpu.MemDepUnit__3.insertedLoads              0                       # Number of loads inserted to the mem dependence unit. (Count)
system.cpu.MemDepUnit__3.insertedStores             0                       # Number of stores inserted to the mem dependence unit. (Count)
system.cpu.MemDepUnit__3.conflictingLoads            0                       # Number of conflicting loads. (Count)
system.cpu.MemDepUnit__3.conflictingStores            0                       # Number of conflicting stores. (Count)
system.cpu.branchPred.lookups                 4159569                       # Number of BP lookups (Count)
system.cpu.branchPred.condPredicted           3828015                       # Number of conditional branches predicted (Count)
system.cpu.branchPred.condIncorrect            189438                       # Number of conditional branches incorrect (Count)
system.cpu.branchPred.BTBLookups              3116926                       # Number of BTB lookups (Count)
system.cpu.branchPred.BTBHits                 3110628                       # Number of BTB hits (Count)
system.cpu.branchPred.BTBHitRatio            0.997979                       # BTB Hit Ratio (Ratio)
system.cpu.branchPred.RASUsed                  108682                       # Number of times the RAS was used to get a target. (Count)
system.cpu.branchPred.RASIncorrect                  9                       # Number of incorrect RAS predictions. (Count)
system.cpu.branchPred.indirectLookups           20515                       # Number of indirect predictor lookups. (Count)
system.cpu.branchPred.indirectHits              19435                       # Number of indirect target hits. (Count)
system.cpu.branchPred.indirectMisses             1080                       # Number of indirect misses. (Count)
system.cpu.branchPred.indirectMispredicted          255                       # Number of mispredicted indirect branches. (Count)
system.cpu.commit.commitSquashedInsts        19671875                       # The number of squashed insts skipped by commit (Count)
system.cpu.commit.commitNonSpecStalls             330                       # The number of times commit has been forced to stall to communicate backwards (Count)
system.cpu.commit.branchMispredicts            187588                       # The number of times a branch was mispredicted (Count)
system.cpu.commit.numCommittedDist::samples     65562501                       # Number of insts commited each cycle (Count)
system.cpu.commit.numCommittedDist::mean     0.992500                       # Number of insts commited each cycle (Count)
system.cpu.commit.numCommittedDist::stdev     2.121480                       # Number of insts commited each cycle (Count)
system.cpu.commit.numCommittedDist::underflows            0      0.00%      0.00% # Number of insts commited each cycle (Count)
system.cpu.commit.numCommittedDist::0        46349906     70.70%     70.70% # Number of insts commited each cycle (Count)
system.cpu.commit.numCommittedDist::1         7427536     11.33%     82.02% # Number of insts commited each cycle (Count)
system.cpu.commit.numCommittedDist::2         2755975      4.20%     86.23% # Number of insts commited each cycle (Count)
system.cpu.commit.numCommittedDist::3         2600666      3.97%     90.19% # Number of insts commited each cycle (Count)
system.cpu.commit.numCommittedDist::4          608627      0.93%     91.12% # Number of insts commited each cycle (Count)
system.cpu.commit.numCommittedDist::5          610140      0.93%     92.05% # Number of insts commited each cycle (Count)
system.cpu.commit.numCommittedDist::6          944237      1.44%     93.49% # Number of insts commited each cycle (Count)
system.cpu.commit.numCommittedDist::7          944642      1.44%     94.93% # Number of insts commited each cycle (Count)
system.cpu.commit.numCommittedDist::8         3320772      5.07%    100.00% # Number of insts commited each cycle (Count)
system.cpu.commit.numCommittedDist::overflows            0      0.00%    100.00% # Number of insts commited each cycle (Count)
system.cpu.commit.numCommittedDist::min_value            0                       # Number of insts commited each cycle (Count)
system.cpu.commit.numCommittedDist::max_value            8                       # Number of insts commited each cycle (Count)
system.cpu.commit.numCommittedDist::total     65562501                       # Number of insts commited each cycle (Count)
system.cpu.commit.instsCommitted             50000000                       # Number of instructions committed (Count)
system.cpu.commit.opsCommitted               65070784                       # Number of ops (including micro ops) committed (Count)
system.cpu.commit.memRefs                    25501597                       # Number of memory references committed (Count)
system.cpu.commit.loads                      21862330                       # Number of loads committed (Count)
system.cpu.commit.amos                              0                       # Number of atomic instructions committed (Count)
system.cpu.commit.membars                         220                       # Number of memory barriers committed (Count)
system.cpu.commit.branches                    2860071                       # Number of branches committed (Count)
system.cpu.commit.vectorInstructions                0                       # Number of committed Vector instructions. (Count)
system.cpu.commit.floating                    3002095                       # Number of committed floating point instructions. (Count)
system.cpu.commit.integer                    62936733                       # Number of committed integer instructions. (Count)
system.cpu.commit.functionCalls                 82469                       # Number of function calls committed. (Count)
system.cpu.commit.committedInstType_0::No_OpClass        16302      0.03%      0.03% # Class of committed instruction (Count)
system.cpu.commit.committedInstType_0::IntAlu     36916456     56.73%     56.76% # Class of committed instruction (Count)
system.cpu.commit.committedInstType_0::IntMult        70750      0.11%     56.87% # Class of committed instruction (Count)
system.cpu.commit.committedInstType_0::IntDiv       629696      0.97%     57.83% # Class of committed instruction (Count)
system.cpu.commit.committedInstType_0::FloatAdd      1010332      1.55%     59.39% # Class of committed instruction (Count)
system.cpu.commit.committedInstType_0::FloatCmp            0      0.00%     59.39% # Class of committed instruction (Count)
system.cpu.commit.committedInstType_0::FloatCvt            0      0.00%     59.39% # Class of committed instruction (Count)
system.cpu.commit.committedInstType_0::FloatMult            0      0.00%     59.39% # Class of committed instruction (Count)
system.cpu.commit.committedInstType_0::FloatMultAcc            0      0.00%     59.39% # Class of committed instruction (Count)
system.cpu.commit.committedInstType_0::FloatDiv            0      0.00%     59.39% # Class of committed instruction (Count)
system.cpu.commit.committedInstType_0::FloatMisc            0      0.00%     59.39% # Class of committed instruction (Count)
system.cpu.commit.committedInstType_0::FloatSqrt            0      0.00%     59.39% # Class of committed instruction (Count)
system.cpu.commit.committedInstType_0::SimdAdd          450      0.00%     59.39% # Class of committed instruction (Count)
system.cpu.commit.committedInstType_0::SimdAddAcc            0      0.00%     59.39% # Class of committed instruction (Count)
system.cpu.commit.committedInstType_0::SimdAlu        88594      0.14%     59.52% # Class of committed instruction (Count)
system.cpu.commit.committedInstType_0::SimdCmp          204      0.00%     59.52% # Class of committed instruction (Count)
system.cpu.commit.committedInstType_0::SimdCvt        91788      0.14%     59.67% # Class of committed instruction (Count)
system.cpu.commit.committedInstType_0::SimdMisc       206377      0.32%     59.98% # Class of committed instruction (Count)
system.cpu.commit.committedInstType_0::SimdMult            0      0.00%     59.98% # Class of committed instruction (Count)
system.cpu.commit.committedInstType_0::SimdMultAcc            0      0.00%     59.98% # Class of committed instruction (Count)
system.cpu.commit.committedInstType_0::SimdShift          110      0.00%     59.98% # Class of committed instruction (Count)
system.cpu.commit.committedInstType_0::SimdShiftAcc            0      0.00%     59.98% # Class of committed instruction (Count)
system.cpu.commit.committedInstType_0::SimdDiv            0      0.00%     59.98% # Class of committed instruction (Count)
system.cpu.commit.committedInstType_0::SimdSqrt            0      0.00%     59.98% # Class of committed instruction (Count)
system.cpu.commit.committedInstType_0::SimdFloatAdd       185070      0.28%     60.27% # Class of committed instruction (Count)
system.cpu.commit.committedInstType_0::SimdFloatAlu            0      0.00%     60.27% # Class of committed instruction (Count)
system.cpu.commit.committedInstType_0::SimdFloatCmp            0      0.00%     60.27% # Class of committed instruction (Count)
system.cpu.commit.committedInstType_0::SimdFloatCvt       283363      0.44%     60.70% # Class of committed instruction (Count)
system.cpu.commit.committedInstType_0::SimdFloatDiv        32916      0.05%     60.75% # Class of committed instruction (Count)
system.cpu.commit.committedInstType_0::SimdFloatMisc            0      0.00%     60.75% # Class of committed instruction (Count)
system.cpu.commit.committedInstType_0::SimdFloatMult        36779      0.06%     60.81% # Class of committed instruction (Count)
system.cpu.commit.committedInstType_0::SimdFloatMultAcc            0      0.00%     60.81% # Class of committed instruction (Count)
system.cpu.commit.committedInstType_0::SimdFloatSqrt            0      0.00%     60.81% # Class of committed instruction (Count)
system.cpu.commit.committedInstType_0::SimdReduceAdd            0      0.00%     60.81% # Class of committed instruction (Count)
system.cpu.commit.committedInstType_0::SimdReduceAlu            0      0.00%     60.81% # Class of committed instruction (Count)
system.cpu.commit.committedInstType_0::SimdReduceCmp            0      0.00%     60.81% # Class of committed instruction (Count)
system.cpu.commit.committedInstType_0::SimdFloatReduceAdd            0      0.00%     60.81% # Class of committed instruction (Count)
system.cpu.commit.committedInstType_0::SimdFloatReduceCmp            0      0.00%     60.81% # Class of committed instruction (Count)
system.cpu.commit.committedInstType_0::SimdAes            0      0.00%     60.81% # Class of committed instruction (Count)
system.cpu.commit.committedInstType_0::SimdAesMix            0      0.00%     60.81% # Class of committed instruction (Count)
system.cpu.commit.committedInstType_0::SimdSha1Hash            0      0.00%     60.81% # Class of committed instruction (Count)
system.cpu.commit.committedInstType_0::SimdSha1Hash2            0      0.00%     60.81% # Class of committed instruction (Count)
system.cpu.commit.committedInstType_0::SimdSha256Hash            0      0.00%     60.81% # Class of committed instruction (Count)
system.cpu.commit.committedInstType_0::SimdSha256Hash2            0      0.00%     60.81% # Class of committed instruction (Count)
system.cpu.commit.committedInstType_0::SimdShaSigma2            0      0.00%     60.81% # Class of committed instruction (Count)
system.cpu.commit.committedInstType_0::SimdShaSigma3            0      0.00%     60.81% # Class of committed instruction (Count)
system.cpu.commit.committedInstType_0::SimdPredAlu            0      0.00%     60.81% # Class of committed instruction (Count)
system.cpu.commit.committedInstType_0::MemRead     21103147     32.43%     93.24% # Class of committed instruction (Count)
system.cpu.commit.committedInstType_0::MemWrite      3445331      5.29%     98.54% # Class of committed instruction (Count)
system.cpu.commit.committedInstType_0::FloatMemRead       759183      1.17%     99.70% # Class of committed instruction (Count)
system.cpu.commit.committedInstType_0::FloatMemWrite       193936      0.30%    100.00% # Class of committed instruction (Count)
system.cpu.commit.committedInstType_0::IprAccess            0      0.00%    100.00% # Class of committed instruction (Count)
system.cpu.commit.committedInstType_0::InstPrefetch            0      0.00%    100.00% # Class of committed instruction (Count)
system.cpu.commit.committedInstType_0::total     65070784                       # Class of committed instruction (Count)
system.cpu.commit.commitEligibleSamples       3320772                       # number cycles where commit BW limit reached (Cycle)
system.cpu.dcache.demandHits::cpu.data       24145538                       # number of demand (read+write) hits (Count)
system.cpu.dcache.demandHits::total          24145538                       # number of demand (read+write) hits (Count)
system.cpu.dcache.overallHits::cpu.data      24145812                       # number of overall hits (Count)
system.cpu.dcache.overallHits::total         24145812                       # number of overall hits (Count)
system.cpu.dcache.demandMisses::cpu.data        48912                       # number of demand (read+write) misses (Count)
system.cpu.dcache.demandMisses::total           48912                       # number of demand (read+write) misses (Count)
system.cpu.dcache.overallMisses::cpu.data        51560                       # number of overall misses (Count)
system.cpu.dcache.overallMisses::total          51560                       # number of overall misses (Count)
system.cpu.dcache.demandMissLatency::cpu.data    962016993                       # number of demand (read+write) miss ticks (Tick)
system.cpu.dcache.demandMissLatency::total    962016993                       # number of demand (read+write) miss ticks (Tick)
system.cpu.dcache.overallMissLatency::cpu.data    962016993                       # number of overall miss ticks (Tick)
system.cpu.dcache.overallMissLatency::total    962016993                       # number of overall miss ticks (Tick)
system.cpu.dcache.demandAccesses::cpu.data     24194450                       # number of demand (read+write) accesses (Count)
system.cpu.dcache.demandAccesses::total      24194450                       # number of demand (read+write) accesses (Count)
system.cpu.dcache.overallAccesses::cpu.data     24197372                       # number of overall (read+write) accesses (Count)
system.cpu.dcache.overallAccesses::total     24197372                       # number of overall (read+write) accesses (Count)
system.cpu.dcache.demandMissRate::cpu.data     0.002022                       # miss rate for demand accesses (Ratio)
system.cpu.dcache.demandMissRate::total      0.002022                       # miss rate for demand accesses (Ratio)
system.cpu.dcache.overallMissRate::cpu.data     0.002131                       # miss rate for overall accesses (Ratio)
system.cpu.dcache.overallMissRate::total     0.002131                       # miss rate for overall accesses (Ratio)
system.cpu.dcache.demandAvgMissLatency::cpu.data 19668.322559                       # average overall miss latency in ticks ((Tick/Count))
system.cpu.dcache.demandAvgMissLatency::total 19668.322559                       # average overall miss latency in ticks ((Tick/Count))
system.cpu.dcache.overallAvgMissLatency::cpu.data 18658.203898                       # average overall miss latency ((Tick/Count))
system.cpu.dcache.overallAvgMissLatency::total 18658.203898                       # average overall miss latency ((Tick/Count))
system.cpu.dcache.blockedCycles::no_mshrs         5356                       # number of cycles access was blocked (Cycle)
system.cpu.dcache.blockedCycles::no_targets           54                       # number of cycles access was blocked (Cycle)
system.cpu.dcache.blockedCauses::no_mshrs          434                       # number of times access was blocked (Count)
system.cpu.dcache.blockedCauses::no_targets            1                       # number of times access was blocked (Count)
system.cpu.dcache.avgBlocked::no_mshrs      12.341014                       # average number of cycles each access was blocked ((Cycle/Count))
system.cpu.dcache.avgBlocked::no_targets           54                       # average number of cycles each access was blocked ((Cycle/Count))
system.cpu.dcache.writebacks::writebacks        48116                       # number of writebacks (Count)
system.cpu.dcache.writebacks::total             48116                       # number of writebacks (Count)
system.cpu.dcache.demandMshrHits::cpu.data        13529                       # number of demand (read+write) MSHR hits (Count)
system.cpu.dcache.demandMshrHits::total         13529                       # number of demand (read+write) MSHR hits (Count)
system.cpu.dcache.overallMshrHits::cpu.data        13529                       # number of overall MSHR hits (Count)
system.cpu.dcache.overallMshrHits::total        13529                       # number of overall MSHR hits (Count)
system.cpu.dcache.demandMshrMisses::cpu.data        35383                       # number of demand (read+write) MSHR misses (Count)
system.cpu.dcache.demandMshrMisses::total        35383                       # number of demand (read+write) MSHR misses (Count)
system.cpu.dcache.overallMshrMisses::cpu.data        38031                       # number of overall MSHR misses (Count)
system.cpu.dcache.overallMshrMisses::cpu.dcache.prefetcher        12386                       # number of overall MSHR misses (Count)
system.cpu.dcache.overallMshrMisses::total        50417                       # number of overall MSHR misses (Count)
system.cpu.dcache.demandMshrMissLatency::cpu.data    679725993                       # number of demand (read+write) MSHR miss ticks (Tick)
system.cpu.dcache.demandMshrMissLatency::total    679725993                       # number of demand (read+write) MSHR miss ticks (Tick)
system.cpu.dcache.overallMshrMissLatency::cpu.data    739037993                       # number of overall MSHR miss ticks (Tick)
system.cpu.dcache.overallMshrMissLatency::cpu.dcache.prefetcher    198851792                       # number of overall MSHR miss ticks (Tick)
system.cpu.dcache.overallMshrMissLatency::total    937889785                       # number of overall MSHR miss ticks (Tick)
system.cpu.dcache.demandMshrMissRate::cpu.data     0.001462                       # mshr miss ratio for demand accesses (Ratio)
system.cpu.dcache.demandMshrMissRate::total     0.001462                       # mshr miss ratio for demand accesses (Ratio)
system.cpu.dcache.overallMshrMissRate::cpu.data     0.001572                       # mshr miss ratio for overall accesses (Ratio)
system.cpu.dcache.overallMshrMissRate::cpu.dcache.prefetcher          inf                       # mshr miss ratio for overall accesses (Ratio)
system.cpu.dcache.overallMshrMissRate::total     0.002084                       # mshr miss ratio for overall accesses (Ratio)
system.cpu.dcache.demandAvgMshrMissLatency::cpu.data 19210.524630                       # average overall mshr miss latency ((Tick/Count))
system.cpu.dcache.demandAvgMshrMissLatency::total 19210.524630                       # average overall mshr miss latency ((Tick/Count))
system.cpu.dcache.overallAvgMshrMissLatency::cpu.data 19432.515395                       # average overall mshr miss latency ((Tick/Count))
system.cpu.dcache.overallAvgMshrMissLatency::cpu.dcache.prefetcher 16054.560956                       # average overall mshr miss latency ((Tick/Count))
system.cpu.dcache.overallAvgMshrMissLatency::total 18602.649602                       # average overall mshr miss latency ((Tick/Count))
system.cpu.dcache.replacements                  49392                       # number of replacements (Count)
system.cpu.dcache.HardPFReq.mshrMisses::cpu.dcache.prefetcher        12386                       # number of HardPFReq MSHR misses (Count)
system.cpu.dcache.HardPFReq.mshrMisses::total        12386                       # number of HardPFReq MSHR misses (Count)
system.cpu.dcache.HardPFReq.mshrMissLatency::cpu.dcache.prefetcher    198851792                       # number of HardPFReq MSHR miss ticks (Tick)
system.cpu.dcache.HardPFReq.mshrMissLatency::total    198851792                       # number of HardPFReq MSHR miss ticks (Tick)
system.cpu.dcache.HardPFReq.mshrMissRate::cpu.dcache.prefetcher          inf                       # mshr miss rate for HardPFReq accesses (Ratio)
system.cpu.dcache.HardPFReq.mshrMissRate::total          inf                       # mshr miss rate for HardPFReq accesses (Ratio)
system.cpu.dcache.HardPFReq.avgMshrMissLatency::cpu.dcache.prefetcher 16054.560956                       # average HardPFReq mshr miss latency ((Tick/Count))
system.cpu.dcache.HardPFReq.avgMshrMissLatency::total 16054.560956                       # average HardPFReq mshr miss latency ((Tick/Count))
system.cpu.dcache.LockedRMWReadReq.hits::cpu.data          110                       # number of LockedRMWReadReq hits (Count)
system.cpu.dcache.LockedRMWReadReq.hits::total          110                       # number of LockedRMWReadReq hits (Count)
system.cpu.dcache.LockedRMWReadReq.accesses::cpu.data          110                       # number of LockedRMWReadReq accesses(hits+misses) (Count)
system.cpu.dcache.LockedRMWReadReq.accesses::total          110                       # number of LockedRMWReadReq accesses(hits+misses) (Count)
system.cpu.dcache.LockedRMWReadReq.mshrMissLatency::cpu.data       660000                       # number of LockedRMWReadReq MSHR miss ticks (Tick)
system.cpu.dcache.LockedRMWReadReq.mshrMissLatency::total       660000                       # number of LockedRMWReadReq MSHR miss ticks (Tick)
system.cpu.dcache.LockedRMWReadReq.avgMshrMissLatency::cpu.data          inf                       # average LockedRMWReadReq mshr miss latency ((Tick/Count))
system.cpu.dcache.LockedRMWReadReq.avgMshrMissLatency::total          inf                       # average LockedRMWReadReq mshr miss latency ((Tick/Count))
system.cpu.dcache.LockedRMWWriteReq.hits::cpu.data          110                       # number of LockedRMWWriteReq hits (Count)
system.cpu.dcache.LockedRMWWriteReq.hits::total          110                       # number of LockedRMWWriteReq hits (Count)
system.cpu.dcache.LockedRMWWriteReq.accesses::cpu.data          110                       # number of LockedRMWWriteReq accesses(hits+misses) (Count)
system.cpu.dcache.LockedRMWWriteReq.accesses::total          110                       # number of LockedRMWWriteReq accesses(hits+misses) (Count)
system.cpu.dcache.ReadReq.hits::cpu.data     20534739                       # number of ReadReq hits (Count)
system.cpu.dcache.ReadReq.hits::total        20534739                       # number of ReadReq hits (Count)
system.cpu.dcache.ReadReq.misses::cpu.data        20492                       # number of ReadReq misses (Count)
system.cpu.dcache.ReadReq.misses::total         20492                       # number of ReadReq misses (Count)
system.cpu.dcache.ReadReq.missLatency::cpu.data    400214000                       # number of ReadReq miss ticks (Tick)
system.cpu.dcache.ReadReq.missLatency::total    400214000                       # number of ReadReq miss ticks (Tick)
system.cpu.dcache.ReadReq.accesses::cpu.data     20555231                       # number of ReadReq accesses(hits+misses) (Count)
system.cpu.dcache.ReadReq.accesses::total     20555231                       # number of ReadReq accesses(hits+misses) (Count)
system.cpu.dcache.ReadReq.missRate::cpu.data     0.000997                       # miss rate for ReadReq accesses (Ratio)
system.cpu.dcache.ReadReq.missRate::total     0.000997                       # miss rate for ReadReq accesses (Ratio)
system.cpu.dcache.ReadReq.avgMissLatency::cpu.data 19530.255710                       # average ReadReq miss latency ((Tick/Count))
system.cpu.dcache.ReadReq.avgMissLatency::total 19530.255710                       # average ReadReq miss latency ((Tick/Count))
system.cpu.dcache.ReadReq.mshrHits::cpu.data        13419                       # number of ReadReq MSHR hits (Count)
system.cpu.dcache.ReadReq.mshrHits::total        13419                       # number of ReadReq MSHR hits (Count)
system.cpu.dcache.ReadReq.mshrMisses::cpu.data         7073                       # number of ReadReq MSHR misses (Count)
system.cpu.dcache.ReadReq.mshrMisses::total         7073                       # number of ReadReq MSHR misses (Count)
system.cpu.dcache.ReadReq.mshrMissLatency::cpu.data    149971000                       # number of ReadReq MSHR miss ticks (Tick)
system.cpu.dcache.ReadReq.mshrMissLatency::total    149971000                       # number of ReadReq MSHR miss ticks (Tick)
system.cpu.dcache.ReadReq.mshrMissRate::cpu.data     0.000344                       # mshr miss rate for ReadReq accesses (Ratio)
system.cpu.dcache.ReadReq.mshrMissRate::total     0.000344                       # mshr miss rate for ReadReq accesses (Ratio)
system.cpu.dcache.ReadReq.avgMshrMissLatency::cpu.data 21203.308356                       # average ReadReq mshr miss latency ((Tick/Count))
system.cpu.dcache.ReadReq.avgMshrMissLatency::total 21203.308356                       # average ReadReq mshr miss latency ((Tick/Count))
system.cpu.dcache.SoftPFReq.hits::cpu.data          274                       # number of SoftPFReq hits (Count)
system.cpu.dcache.SoftPFReq.hits::total           274                       # number of SoftPFReq hits (Count)
system.cpu.dcache.SoftPFReq.misses::cpu.data         2648                       # number of SoftPFReq misses (Count)
system.cpu.dcache.SoftPFReq.misses::total         2648                       # number of SoftPFReq misses (Count)
system.cpu.dcache.SoftPFReq.accesses::cpu.data         2922                       # number of SoftPFReq accesses(hits+misses) (Count)
system.cpu.dcache.SoftPFReq.accesses::total         2922                       # number of SoftPFReq accesses(hits+misses) (Count)
system.cpu.dcache.SoftPFReq.missRate::cpu.data     0.906229                       # miss rate for SoftPFReq accesses (Ratio)
system.cpu.dcache.SoftPFReq.missRate::total     0.906229                       # miss rate for SoftPFReq accesses (Ratio)
system.cpu.dcache.SoftPFReq.mshrMisses::cpu.data         2648                       # number of SoftPFReq MSHR misses (Count)
system.cpu.dcache.SoftPFReq.mshrMisses::total         2648                       # number of SoftPFReq MSHR misses (Count)
system.cpu.dcache.SoftPFReq.mshrMissLatency::cpu.data     59312000                       # number of SoftPFReq MSHR miss ticks (Tick)
system.cpu.dcache.SoftPFReq.mshrMissLatency::total     59312000                       # number of SoftPFReq MSHR miss ticks (Tick)
system.cpu.dcache.SoftPFReq.mshrMissRate::cpu.data     0.906229                       # mshr miss rate for SoftPFReq accesses (Ratio)
system.cpu.dcache.SoftPFReq.mshrMissRate::total     0.906229                       # mshr miss rate for SoftPFReq accesses (Ratio)
system.cpu.dcache.SoftPFReq.avgMshrMissLatency::cpu.data 22398.791541                       # average SoftPFReq mshr miss latency ((Tick/Count))
system.cpu.dcache.SoftPFReq.avgMshrMissLatency::total 22398.791541                       # average SoftPFReq mshr miss latency ((Tick/Count))
system.cpu.dcache.WriteReq.hits::cpu.data      3610799                       # number of WriteReq hits (Count)
system.cpu.dcache.WriteReq.hits::total        3610799                       # number of WriteReq hits (Count)
system.cpu.dcache.WriteReq.misses::cpu.data        28420                       # number of WriteReq misses (Count)
system.cpu.dcache.WriteReq.misses::total        28420                       # number of WriteReq misses (Count)
system.cpu.dcache.WriteReq.missLatency::cpu.data    561802993                       # number of WriteReq miss ticks (Tick)
system.cpu.dcache.WriteReq.missLatency::total    561802993                       # number of WriteReq miss ticks (Tick)
system.cpu.dcache.WriteReq.accesses::cpu.data      3639219                       # number of WriteReq accesses(hits+misses) (Count)
system.cpu.dcache.WriteReq.accesses::total      3639219                       # number of WriteReq accesses(hits+misses) (Count)
system.cpu.dcache.WriteReq.missRate::cpu.data     0.007809                       # miss rate for WriteReq accesses (Ratio)
system.cpu.dcache.WriteReq.missRate::total     0.007809                       # miss rate for WriteReq accesses (Ratio)
system.cpu.dcache.WriteReq.avgMissLatency::cpu.data 19767.874490                       # average WriteReq miss latency ((Tick/Count))
system.cpu.dcache.WriteReq.avgMissLatency::total 19767.874490                       # average WriteReq miss latency ((Tick/Count))
system.cpu.dcache.WriteReq.mshrHits::cpu.data          110                       # number of WriteReq MSHR hits (Count)
system.cpu.dcache.WriteReq.mshrHits::total          110                       # number of WriteReq MSHR hits (Count)
system.cpu.dcache.WriteReq.mshrMisses::cpu.data        28310                       # number of WriteReq MSHR misses (Count)
system.cpu.dcache.WriteReq.mshrMisses::total        28310                       # number of WriteReq MSHR misses (Count)
system.cpu.dcache.WriteReq.mshrMissLatency::cpu.data    529754993                       # number of WriteReq MSHR miss ticks (Tick)
system.cpu.dcache.WriteReq.mshrMissLatency::total    529754993                       # number of WriteReq MSHR miss ticks (Tick)
system.cpu.dcache.WriteReq.mshrMissRate::cpu.data     0.007779                       # mshr miss rate for WriteReq accesses (Ratio)
system.cpu.dcache.WriteReq.mshrMissRate::total     0.007779                       # mshr miss rate for WriteReq accesses (Ratio)
system.cpu.dcache.WriteReq.avgMshrMissLatency::cpu.data 18712.645461                       # average WriteReq mshr miss latency ((Tick/Count))
system.cpu.dcache.WriteReq.avgMshrMissLatency::total 18712.645461                       # average WriteReq mshr miss latency ((Tick/Count))
system.cpu.dcache.power_state.pwrStateResidencyTicks::UNDEFINED  68178056000                       # Cumulative time (in ticks) in various power states (Tick)
system.cpu.dcache.prefetcher.demandMshrMisses        35383                       # demands not covered by prefetchs (Count)
system.cpu.dcache.prefetcher.pfIssued           14131                       # number of hwpf issued (Count)
system.cpu.dcache.prefetcher.pfUnused             316                       # number of HardPF blocks evicted w/o reference (Count)
system.cpu.dcache.prefetcher.pfUseful           11512                       # number of useful prefetch (Count)
system.cpu.dcache.prefetcher.pfUsefulButMiss            0                       # number of hit on prefetch but cache block is not in an usable state (Count)
system.cpu.dcache.prefetcher.accuracy        0.814663                       # accuracy of the prefetcher (Count)
system.cpu.dcache.prefetcher.coverage        0.245485                       # coverage brought by this prefetcher (Count)
system.cpu.dcache.prefetcher.pfHitInCache         1692                       # number of prefetches hitting in cache (Count)
system.cpu.dcache.prefetcher.pfHitInMSHR           53                       # number of prefetches hitting in a MSHR (Count)
system.cpu.dcache.prefetcher.pfHitInWB              0                       # number of prefetches hit in the Write Buffer (Count)
system.cpu.dcache.prefetcher.pfLate              1745                       # number of late prefetches (hitting in cache, MSHR or WB) (Count)
system.cpu.dcache.prefetcher.pfIdentified        30283                       # number of prefetch candidates identified (Count)
system.cpu.dcache.prefetcher.pfBufferHit        12043                       # number of redundant prefetches already in prefetch queue (Count)
system.cpu.dcache.prefetcher.pfInCache              0                       # number of redundant prefetches already in cache/mshr dropped (Count)
system.cpu.dcache.prefetcher.pfRemovedDemand          486                       # number of prefetches dropped due to a demand for the same address (Count)
system.cpu.dcache.prefetcher.pfRemovedFull            0                       # number of prefetches dropped due to prefetch queue size (Count)
system.cpu.dcache.prefetcher.pfSpanPage          4929                       # number of prefetches that crossed the page (Count)
system.cpu.dcache.prefetcher.pfUsefulSpanPage            0                       # number of prefetches that is useful and crossed the page (Count)
system.cpu.dcache.prefetcher.power_state.pwrStateResidencyTicks::UNDEFINED  68178056000                       # Cumulative time (in ticks) in various power states (Tick)
system.cpu.dcache.tags.tagsInUse          1017.303762                       # Average ticks per tags in use ((Tick/Count))
system.cpu.dcache.tags.totalRefs             24196449                       # Total number of references to valid blocks. (Count)
system.cpu.dcache.tags.sampledRefs              50416                       # Sample count of references to valid blocks. (Count)
system.cpu.dcache.tags.avgRefs             479.935913                       # Average number of references to valid blocks. ((Count/Count))
system.cpu.dcache.tags.warmupTick              231000                       # The tick when the warmup percentage was hit. (Tick)
system.cpu.dcache.tags.occupancies::cpu.data   819.315312                       # Average occupied blocks per tick, per requestor ((Count/Tick))
system.cpu.dcache.tags.occupancies::cpu.dcache.prefetcher   197.988450                       # Average occupied blocks per tick, per requestor ((Count/Tick))
system.cpu.dcache.tags.avgOccs::cpu.data     0.800113                       # Average percentage of cache occupancy ((Ratio/Tick))
system.cpu.dcache.tags.avgOccs::cpu.dcache.prefetcher     0.193348                       # Average percentage of cache occupancy ((Ratio/Tick))
system.cpu.dcache.tags.avgOccs::total        0.993461                       # Average percentage of cache occupancy ((Ratio/Tick))
system.cpu.dcache.tags.occupanciesTaskId::1022          200                       # Occupied blocks per task id (Count)
system.cpu.dcache.tags.occupanciesTaskId::1024          824                       # Occupied blocks per task id (Count)
system.cpu.dcache.tags.ageTaskId_1022::1            4                       # Occupied blocks per task id, per block age (Count)
system.cpu.dcache.tags.ageTaskId_1022::2            2                       # Occupied blocks per task id, per block age (Count)
system.cpu.dcache.tags.ageTaskId_1022::3          194                       # Occupied blocks per task id, per block age (Count)
system.cpu.dcache.tags.ageTaskId_1024::0            8                       # Occupied blocks per task id, per block age (Count)
system.cpu.dcache.tags.ageTaskId_1024::1           12                       # Occupied blocks per task id, per block age (Count)
system.cpu.dcache.tags.ageTaskId_1024::2           57                       # Occupied blocks per task id, per block age (Count)
system.cpu.dcache.tags.ageTaskId_1024::3          747                       # Occupied blocks per task id, per block age (Count)
system.cpu.dcache.tags.ratioOccsTaskId::1022     0.195312                       # Ratio of occupied blocks and all blocks, per task id (Ratio)
system.cpu.dcache.tags.ratioOccsTaskId::1024     0.804688                       # Ratio of occupied blocks and all blocks, per task id (Ratio)
system.cpu.dcache.tags.tagAccesses           96840784                       # Number of tag accesses (Count)
system.cpu.dcache.tags.dataAccesses          96840784                       # Number of data accesses (Count)
system.cpu.dcache.tags.power_state.pwrStateResidencyTicks::UNDEFINED  68178056000                       # Cumulative time (in ticks) in various power states (Tick)
system.cpu.decode.idleCycles                  3321987                       # Number of cycles decode is idle (Cycle)
system.cpu.decode.blockedCycles              53476411                       # Number of cycles decode is blocked (Cycle)
system.cpu.decode.runCycles                   4045582                       # Number of cycles decode is running (Cycle)
system.cpu.decode.unblockCycles               7104267                       # Number of cycles decode is unblocking (Cycle)
system.cpu.decode.squashCycles                 194519                       # Number of cycles decode is squashing (Cycle)
system.cpu.decode.branchResolved              2850843                       # Number of times decode resolved a branch (Count)
system.cpu.decode.branchMispred                  1913                       # Number of times decode detected a branch misprediction (Count)
system.cpu.decode.decodedInsts               86288702                       # Number of instructions handled by decode (Count)
system.cpu.decode.squashedInsts                  7255                       # Number of squashed instructions handled by decode (Count)
system.cpu.fetch.icacheStallCycles            6645075                       # Number of cycles fetch is stalled on an Icache miss (Cycle)
system.cpu.fetch.insts                       70613726                       # Number of instructions fetch has processed (Count)
system.cpu.fetch.branches                     4159569                       # Number of branches that fetch encountered (Count)
system.cpu.fetch.predictedBranches            3238745                       # Number of branches that fetch has predicted taken (Count)
system.cpu.fetch.cycles                      61300833                       # Number of cycles fetch has run and was not squashing or blocked (Cycle)
system.cpu.fetch.squashCycles                  392816                       # Number of cycles fetch has spent squashing (Cycle)
system.cpu.fetch.miscStallCycles                   59                       # Number of cycles fetch has spent waiting on interrupts, or bad addresses, or out of MSHRs (Cycle)
system.cpu.fetch.pendingTrapStallCycles           391                       # Number of stall cycles due to pending traps (Cycle)
system.cpu.fetch.cacheLines                   6475782                       # Number of cache lines fetched (Count)
system.cpu.fetch.icacheSquashes                 31626                       # Number of outstanding Icache misses that were squashed (Count)
system.cpu.fetch.nisnDist::samples           68142766                       # Number of instructions fetched each cycle (Total) (Count)
system.cpu.fetch.nisnDist::mean              1.367645                       # Number of instructions fetched each cycle (Total) (Count)
system.cpu.fetch.nisnDist::stdev             2.710636                       # Number of instructions fetched each cycle (Total) (Count)
system.cpu.fetch.nisnDist::underflows               0      0.00%      0.00% # Number of instructions fetched each cycle (Total) (Count)
system.cpu.fetch.nisnDist::0                 51231711     75.18%     75.18% # Number of instructions fetched each cycle (Total) (Count)
system.cpu.fetch.nisnDist::1                  1465039      2.15%     77.33% # Number of instructions fetched each cycle (Total) (Count)
system.cpu.fetch.nisnDist::2                  1954706      2.87%     80.20% # Number of instructions fetched each cycle (Total) (Count)
system.cpu.fetch.nisnDist::3                  1737479      2.55%     82.75% # Number of instructions fetched each cycle (Total) (Count)
system.cpu.fetch.nisnDist::4                  1010560      1.48%     84.23% # Number of instructions fetched each cycle (Total) (Count)
system.cpu.fetch.nisnDist::5                  1287504      1.89%     86.12% # Number of instructions fetched each cycle (Total) (Count)
system.cpu.fetch.nisnDist::6                  1228934      1.80%     87.93% # Number of instructions fetched each cycle (Total) (Count)
system.cpu.fetch.nisnDist::7                  1059776      1.56%     89.48% # Number of instructions fetched each cycle (Total) (Count)
system.cpu.fetch.nisnDist::8                  7167057     10.52%    100.00% # Number of instructions fetched each cycle (Total) (Count)
system.cpu.fetch.nisnDist::overflows                0      0.00%    100.00% # Number of instructions fetched each cycle (Total) (Count)
system.cpu.fetch.nisnDist::min_value                0                       # Number of instructions fetched each cycle (Total) (Count)
system.cpu.fetch.nisnDist::max_value                8                       # Number of instructions fetched each cycle (Total) (Count)
system.cpu.fetch.nisnDist::total             68142766                       # Number of instructions fetched each cycle (Total) (Count)
system.cpu.fetch.branchRate                  0.061010                       # Number of branch fetches per cycle (Ratio)
system.cpu.fetch.rate                        1.035725                       # Number of inst fetches per cycle ((Count/Cycle))
system.cpu.icache.demandHits::cpu.inst        6473554                       # number of demand (read+write) hits (Count)
system.cpu.icache.demandHits::total           6473554                       # number of demand (read+write) hits (Count)
system.cpu.icache.overallHits::cpu.inst       6473554                       # number of overall hits (Count)
system.cpu.icache.overallHits::total          6473554                       # number of overall hits (Count)
system.cpu.icache.demandMisses::cpu.inst         2228                       # number of demand (read+write) misses (Count)
system.cpu.icache.demandMisses::total            2228                       # number of demand (read+write) misses (Count)
system.cpu.icache.overallMisses::cpu.inst         2228                       # number of overall misses (Count)
system.cpu.icache.overallMisses::total           2228                       # number of overall misses (Count)
system.cpu.icache.demandMissLatency::cpu.inst    165376000                       # number of demand (read+write) miss ticks (Tick)
system.cpu.icache.demandMissLatency::total    165376000                       # number of demand (read+write) miss ticks (Tick)
system.cpu.icache.overallMissLatency::cpu.inst    165376000                       # number of overall miss ticks (Tick)
system.cpu.icache.overallMissLatency::total    165376000                       # number of overall miss ticks (Tick)
system.cpu.icache.demandAccesses::cpu.inst      6475782                       # number of demand (read+write) accesses (Count)
system.cpu.icache.demandAccesses::total       6475782                       # number of demand (read+write) accesses (Count)
system.cpu.icache.overallAccesses::cpu.inst      6475782                       # number of overall (read+write) accesses (Count)
system.cpu.icache.overallAccesses::total      6475782                       # number of overall (read+write) accesses (Count)
system.cpu.icache.demandMissRate::cpu.inst     0.000344                       # miss rate for demand accesses (Ratio)
system.cpu.icache.demandMissRate::total      0.000344                       # miss rate for demand accesses (Ratio)
system.cpu.icache.overallMissRate::cpu.inst     0.000344                       # miss rate for overall accesses (Ratio)
system.cpu.icache.overallMissRate::total     0.000344                       # miss rate for overall accesses (Ratio)
system.cpu.icache.demandAvgMissLatency::cpu.inst 74226.211849                       # average overall miss latency in ticks ((Tick/Count))
system.cpu.icache.demandAvgMissLatency::total 74226.211849                       # average overall miss latency in ticks ((Tick/Count))
system.cpu.icache.overallAvgMissLatency::cpu.inst 74226.211849                       # average overall miss latency ((Tick/Count))
system.cpu.icache.overallAvgMissLatency::total 74226.211849                       # average overall miss latency ((Tick/Count))
system.cpu.icache.blockedCycles::no_mshrs          172                       # number of cycles access was blocked (Cycle)
system.cpu.icache.blockedCycles::no_targets            0                       # number of cycles access was blocked (Cycle)
system.cpu.icache.blockedCauses::no_mshrs            5                       # number of times access was blocked (Count)
system.cpu.icache.blockedCauses::no_targets            0                       # number of times access was blocked (Count)
system.cpu.icache.avgBlocked::no_mshrs      34.400000                       # average number of cycles each access was blocked ((Cycle/Count))
system.cpu.icache.avgBlocked::no_targets          nan                       # average number of cycles each access was blocked ((Cycle/Count))
system.cpu.icache.demandMshrHits::cpu.inst          588                       # number of demand (read+write) MSHR hits (Count)
system.cpu.icache.demandMshrHits::total           588                       # number of demand (read+write) MSHR hits (Count)
system.cpu.icache.overallMshrHits::cpu.inst          588                       # number of overall MSHR hits (Count)
system.cpu.icache.overallMshrHits::total          588                       # number of overall MSHR hits (Count)
system.cpu.icache.demandMshrMisses::cpu.inst         1640                       # number of demand (read+write) MSHR misses (Count)
system.cpu.icache.demandMshrMisses::total         1640                       # number of demand (read+write) MSHR misses (Count)
system.cpu.icache.overallMshrMisses::cpu.inst         1640                       # number of overall MSHR misses (Count)
system.cpu.icache.overallMshrMisses::total         1640                       # number of overall MSHR misses (Count)
system.cpu.icache.demandMshrMissLatency::cpu.inst    130454000                       # number of demand (read+write) MSHR miss ticks (Tick)
system.cpu.icache.demandMshrMissLatency::total    130454000                       # number of demand (read+write) MSHR miss ticks (Tick)
system.cpu.icache.overallMshrMissLatency::cpu.inst    130454000                       # number of overall MSHR miss ticks (Tick)
system.cpu.icache.overallMshrMissLatency::total    130454000                       # number of overall MSHR miss ticks (Tick)
system.cpu.icache.demandMshrMissRate::cpu.inst     0.000253                       # mshr miss ratio for demand accesses (Ratio)
system.cpu.icache.demandMshrMissRate::total     0.000253                       # mshr miss ratio for demand accesses (Ratio)
system.cpu.icache.overallMshrMissRate::cpu.inst     0.000253                       # mshr miss ratio for overall accesses (Ratio)
system.cpu.icache.overallMshrMissRate::total     0.000253                       # mshr miss ratio for overall accesses (Ratio)
system.cpu.icache.demandAvgMshrMissLatency::cpu.inst 79545.121951                       # average overall mshr miss latency ((Tick/Count))
system.cpu.icache.demandAvgMshrMissLatency::total 79545.121951                       # average overall mshr miss latency ((Tick/Count))
system.cpu.icache.overallAvgMshrMissLatency::cpu.inst 79545.121951                       # average overall mshr miss latency ((Tick/Count))
system.cpu.icache.overallAvgMshrMissLatency::total 79545.121951                       # average overall mshr miss latency ((Tick/Count))
system.cpu.icache.replacements                    643                       # number of replacements (Count)
system.cpu.icache.ReadReq.hits::cpu.inst      6473554                       # number of ReadReq hits (Count)
system.cpu.icache.ReadReq.hits::total         6473554                       # number of ReadReq hits (Count)
system.cpu.icache.ReadReq.misses::cpu.inst         2228                       # number of ReadReq misses (Count)
system.cpu.icache.ReadReq.misses::total          2228                       # number of ReadReq misses (Count)
system.cpu.icache.ReadReq.missLatency::cpu.inst    165376000                       # number of ReadReq miss ticks (Tick)
system.cpu.icache.ReadReq.missLatency::total    165376000                       # number of ReadReq miss ticks (Tick)
system.cpu.icache.ReadReq.accesses::cpu.inst      6475782                       # number of ReadReq accesses(hits+misses) (Count)
system.cpu.icache.ReadReq.accesses::total      6475782                       # number of ReadReq accesses(hits+misses) (Count)
system.cpu.icache.ReadReq.missRate::cpu.inst     0.000344                       # miss rate for ReadReq accesses (Ratio)
system.cpu.icache.ReadReq.missRate::total     0.000344                       # miss rate for ReadReq accesses (Ratio)
system.cpu.icache.ReadReq.avgMissLatency::cpu.inst 74226.211849                       # average ReadReq miss latency ((Tick/Count))
system.cpu.icache.ReadReq.avgMissLatency::total 74226.211849                       # average ReadReq miss latency ((Tick/Count))
system.cpu.icache.ReadReq.mshrHits::cpu.inst          588                       # number of ReadReq MSHR hits (Count)
system.cpu.icache.ReadReq.mshrHits::total          588                       # number of ReadReq MSHR hits (Count)
system.cpu.icache.ReadReq.mshrMisses::cpu.inst         1640                       # number of ReadReq MSHR misses (Count)
system.cpu.icache.ReadReq.mshrMisses::total         1640                       # number of ReadReq MSHR misses (Count)
system.cpu.icache.ReadReq.mshrMissLatency::cpu.inst    130454000                       # number of ReadReq MSHR miss ticks (Tick)
system.cpu.icache.ReadReq.mshrMissLatency::total    130454000                       # number of ReadReq MSHR miss ticks (Tick)
system.cpu.icache.ReadReq.mshrMissRate::cpu.inst     0.000253                       # mshr miss rate for ReadReq accesses (Ratio)
system.cpu.icache.ReadReq.mshrMissRate::total     0.000253                       # mshr miss rate for ReadReq accesses (Ratio)
system.cpu.icache.ReadReq.avgMshrMissLatency::cpu.inst 79545.121951                       # average ReadReq mshr miss latency ((Tick/Count))
system.cpu.icache.ReadReq.avgMshrMissLatency::total 79545.121951                       # average ReadReq mshr miss latency ((Tick/Count))
system.cpu.icache.power_state.pwrStateResidencyTicks::UNDEFINED  68178056000                       # Cumulative time (in ticks) in various power states (Tick)
system.cpu.icache.prefetcher.demandMshrMisses         1640                       # demands not covered by prefetchs (Count)
system.cpu.icache.prefetcher.pfIssued               0                       # number of hwpf issued (Count)
system.cpu.icache.prefetcher.pfUseful               0                       # number of useful prefetch (Count)
system.cpu.icache.prefetcher.pfUsefulButMiss            0                       # number of hit on prefetch but cache block is not in an usable state (Count)
system.cpu.icache.prefetcher.accuracy             nan                       # accuracy of the prefetcher (Count)
system.cpu.icache.prefetcher.coverage               0                       # coverage brought by this prefetcher (Count)
system.cpu.icache.prefetcher.pfHitInCache            0                       # number of prefetches hitting in cache (Count)
system.cpu.icache.prefetcher.pfHitInMSHR            0                       # number of prefetches hitting in a MSHR (Count)
system.cpu.icache.prefetcher.pfHitInWB              0                       # number of prefetches hit in the Write Buffer (Count)
system.cpu.icache.prefetcher.pfLate                 0                       # number of late prefetches (hitting in cache, MSHR or WB) (Count)
system.cpu.icache.prefetcher.pfIdentified            0                       # number of prefetch candidates identified (Count)
system.cpu.icache.prefetcher.pfBufferHit            0                       # number of redundant prefetches already in prefetch queue (Count)
system.cpu.icache.prefetcher.pfInCache              0                       # number of redundant prefetches already in cache/mshr dropped (Count)
system.cpu.icache.prefetcher.pfRemovedDemand            0                       # number of prefetches dropped due to a demand for the same address (Count)
system.cpu.icache.prefetcher.pfRemovedFull            0                       # number of prefetches dropped due to prefetch queue size (Count)
system.cpu.icache.prefetcher.pfSpanPage             0                       # number of prefetches that crossed the page (Count)
system.cpu.icache.prefetcher.pfUsefulSpanPage            0                       # number of prefetches that is useful and crossed the page (Count)
system.cpu.icache.prefetcher.power_state.pwrStateResidencyTicks::UNDEFINED  68178056000                       # Cumulative time (in ticks) in various power states (Tick)
system.cpu.icache.tags.tagsInUse           993.387069                       # Average ticks per tags in use ((Tick/Count))
system.cpu.icache.tags.totalRefs              6475194                       # Total number of references to valid blocks. (Count)
system.cpu.icache.tags.sampledRefs               1640                       # Sample count of references to valid blocks. (Count)
system.cpu.icache.tags.avgRefs            3948.289024                       # Average number of references to valid blocks. ((Count/Count))
system.cpu.icache.tags.warmupTick               88000                       # The tick when the warmup percentage was hit. (Tick)
system.cpu.icache.tags.occupancies::cpu.inst   993.387069                       # Average occupied blocks per tick, per requestor ((Count/Tick))
system.cpu.icache.tags.avgOccs::cpu.inst     0.970105                       # Average percentage of cache occupancy ((Ratio/Tick))
system.cpu.icache.tags.avgOccs::total        0.970105                       # Average percentage of cache occupancy ((Ratio/Tick))
[...]
system.mem_ctrl.dram.numWrites::writebacks           65                       # Number of write requests responded to by this memory (Count)
system.mem_ctrl.dram.numWrites::total              65                       # Number of write requests responded to by this memory (Count)
system.mem_ctrl.dram.bwRead::cpu.inst         1479420                       # Total read bandwidth from this memory ((Byte/Second))
system.mem_ctrl.dram.bwRead::cpu.data         2607760                       # Total read bandwidth from this memory ((Byte/Second))
system.mem_ctrl.dram.bwRead::cpu.dcache.prefetcher       444014                       # Total read bandwidth from this memory ((Byte/Second))
system.mem_ctrl.dram.bwRead::l2cache.prefetcher       517234                       # Total read bandwidth from this memory ((Byte/Second))
system.mem_ctrl.dram.bwRead::total            5048428                       # Total read bandwidth from this memory ((Byte/Second))
system.mem_ctrl.dram.bwInstRead::cpu.inst      1479420                       # Instruction read bandwidth from this memory ((Byte/Second))
system.mem_ctrl.dram.bwInstRead::total        1479420                       # Instruction read bandwidth from this memory ((Byte/Second))
system.mem_ctrl.dram.bwWrite::writebacks        61017                       # Write bandwidth from this memory ((Byte/Second))
system.mem_ctrl.dram.bwWrite::total             61017                       # Write bandwidth from this memory ((Byte/Second))
system.mem_ctrl.dram.bwTotal::writebacks        61017                       # Total bandwidth to/from this memory ((Byte/Second))
system.mem_ctrl.dram.bwTotal::cpu.inst        1479420                       # Total bandwidth to/from this memory ((Byte/Second))
system.mem_ctrl.dram.bwTotal::cpu.data        2607760                       # Total bandwidth to/from this memory ((Byte/Second))
system.mem_ctrl.dram.bwTotal::cpu.dcache.prefetcher       444014                       # Total bandwidth to/from this memory ((Byte/Second))
system.mem_ctrl.dram.bwTotal::l2cache.prefetcher       517234                       # Total bandwidth to/from this memory ((Byte/Second))
system.mem_ctrl.dram.bwTotal::total           5109445                       # Total bandwidth to/from this memory ((Byte/Second))
system.mem_ctrl.dram.readBursts                  5374                       # Number of DRAM read bursts (Count)
system.mem_ctrl.dram.writeBursts                   35                       # Number of DRAM write bursts (Count)
system.mem_ctrl.dram.perBankRdBursts::0           228                       # Per bank write bursts (Count)
system.mem_ctrl.dram.perBankRdBursts::1           234                       # Per bank write bursts (Count)
system.mem_ctrl.dram.perBankRdBursts::2           323                       # Per bank write bursts (Count)
system.mem_ctrl.dram.perBankRdBursts::3           197                       # Per bank write bursts (Count)
system.mem_ctrl.dram.perBankRdBursts::4           375                       # Per bank write bursts (Count)
system.mem_ctrl.dram.perBankRdBursts::5           303                       # Per bank write bursts (Count)
system.mem_ctrl.dram.perBankRdBursts::6           227                       # Per bank write bursts (Count)
system.mem_ctrl.dram.perBankRdBursts::7           286                       # Per bank write bursts (Count)
system.mem_ctrl.dram.perBankRdBursts::8           472                       # Per bank write bursts (Count)
system.mem_ctrl.dram.perBankRdBursts::9           410                       # Per bank write bursts (Count)
system.mem_ctrl.dram.perBankRdBursts::10          458                       # Per bank write bursts (Count)
system.mem_ctrl.dram.perBankRdBursts::11          496                       # Per bank write bursts (Count)
system.mem_ctrl.dram.perBankRdBursts::12          384                       # Per bank write bursts (Count)
system.mem_ctrl.dram.perBankRdBursts::13          332                       # Per bank write bursts (Count)
system.mem_ctrl.dram.perBankRdBursts::14          312                       # Per bank write bursts (Count)
system.mem_ctrl.dram.perBankRdBursts::15          337                       # Per bank write bursts (Count)
system.mem_ctrl.dram.perBankWrBursts::0             0                       # Per bank write bursts (Count)
system.mem_ctrl.dram.perBankWrBursts::1             0                       # Per bank write bursts (Count)
system.mem_ctrl.dram.perBankWrBursts::2             0                       # Per bank write bursts (Count)
system.mem_ctrl.dram.perBankWrBursts::3             0                       # Per bank write bursts (Count)
system.mem_ctrl.dram.perBankWrBursts::4             7                       # Per bank write bursts (Count)
system.mem_ctrl.dram.perBankWrBursts::5             0                       # Per bank write bursts (Count)
system.mem_ctrl.dram.perBankWrBursts::6             9                       # Per bank write bursts (Count)
system.mem_ctrl.dram.perBankWrBursts::7             8                       # Per bank write bursts (Count)
system.mem_ctrl.dram.perBankWrBursts::8            10                       # Per bank write bursts (Count)
system.mem_ctrl.dram.perBankWrBursts::9             1                       # Per bank write bursts (Count)
system.mem_ctrl.dram.perBankWrBursts::10            0                       # Per bank write bursts (Count)
system.mem_ctrl.dram.perBankWrBursts::11            0                       # Per bank write bursts (Count)
system.mem_ctrl.dram.perBankWrBursts::12            0                       # Per bank write bursts (Count)
system.mem_ctrl.dram.perBankWrBursts::13            0                       # Per bank write bursts (Count)
system.mem_ctrl.dram.perBankWrBursts::14            0                       # Per bank write bursts (Count)
system.mem_ctrl.dram.perBankWrBursts::15            0                       # Per bank write bursts (Count)
system.mem_ctrl.dram.totQLat                 53384049                       # Total ticks spent queuing (Tick)
system.mem_ctrl.dram.totBusLat               26870000                       # Total ticks spent in databus transfers (Tick)
system.mem_ctrl.dram.totMemAccLat           154146549                       # Total ticks spent from burst creation until serviced by the DRAM (Tick)
system.mem_ctrl.dram.avgQLat                  9933.76                       # Average queueing delay per DRAM burst ((Tick/Count))
system.mem_ctrl.dram.avgBusLat                5000.00                       # Average bus latency per DRAM burst ((Tick/Count))
system.mem_ctrl.dram.avgMemAccLat            28683.76                       # Average memory access latency per DRAM burst ((Tick/Count))
system.mem_ctrl.dram.readRowHits                 3946                       # Number of row buffer hits during reads (Count)
system.mem_ctrl.dram.writeRowHits                  29                       # Number of row buffer hits during writes (Count)
system.mem_ctrl.dram.readRowHitRate             73.43                       # Row buffer hit rate for reads (Ratio)
system.mem_ctrl.dram.writeRowHitRate            82.86                       # Row buffer hit rate for writes (Ratio)
system.mem_ctrl.dram.bytesPerActivate::samples         1434                       # Bytes accessed per row activation (Byte)
system.mem_ctrl.dram.bytesPerActivate::mean   241.405858                       # Bytes accessed per row activation (Byte)
system.mem_ctrl.dram.bytesPerActivate::gmean   154.437669                       # Bytes accessed per row activation (Byte)
system.mem_ctrl.dram.bytesPerActivate::stdev   273.231293                       # Bytes accessed per row activation (Byte)
system.mem_ctrl.dram.bytesPerActivate::0-127          513     35.77%     35.77% # Bytes accessed per row activation (Byte)
system.mem_ctrl.dram.bytesPerActivate::128-255          519     36.19%     71.97% # Bytes accessed per row activation (Byte)
system.mem_ctrl.dram.bytesPerActivate::256-383          126      8.79%     80.75% # Bytes accessed per row activation (Byte)
system.mem_ctrl.dram.bytesPerActivate::384-511           83      5.79%     86.54% # Bytes accessed per row activation (Byte)
system.mem_ctrl.dram.bytesPerActivate::512-639           40      2.79%     89.33% # Bytes accessed per row activation (Byte)
system.mem_ctrl.dram.bytesPerActivate::640-767           21      1.46%     90.79% # Bytes accessed per row activation (Byte)
system.mem_ctrl.dram.bytesPerActivate::768-895           11      0.77%     91.56% # Bytes accessed per row activation (Byte)
system.mem_ctrl.dram.bytesPerActivate::896-1023           13      0.91%     92.47% # Bytes accessed per row activation (Byte)
system.mem_ctrl.dram.bytesPerActivate::1024-1151          108      7.53%    100.00% # Bytes accessed per row activation (Byte)
system.mem_ctrl.dram.bytesPerActivate::total         1434                       # Bytes accessed per row activation (Byte)
system.mem_ctrl.dram.bytesRead                 343936                       # Total bytes read (Byte)
system.mem_ctrl.dram.bytesWritten                2240                       # Total bytes written (Byte)
system.mem_ctrl.dram.avgRdBW                 5.044673                       # Average DRAM read bandwidth in MiBytes/s ((Byte/Second))
system.mem_ctrl.dram.avgWrBW                 0.032855                       # Average DRAM write bandwidth in MiBytes/s ((Byte/Second))
system.mem_ctrl.dram.peakBW                  12800.00                       # Theoretical peak bandwidth in MiByte/s ((Byte/Second))
system.mem_ctrl.dram.busUtil                     0.04                       # Data bus utilization in percentage (Ratio)
system.mem_ctrl.dram.busUtilRead                 0.04                       # Data bus utilization in percentage for reads (Ratio)
system.mem_ctrl.dram.busUtilWrite                0.00                       # Data bus utilization in percentage for writes (Ratio)
system.mem_ctrl.dram.pageHitRate                73.49                       # Row buffer hit rate, read and write combined (Ratio)
system.mem_ctrl.dram.power_state.pwrStateResidencyTicks::UNDEFINED  68178056000                       # Cumulative time (in ticks) in various power states (Tick)
system.mem_ctrl.dram.rank0.actEnergy          5169360                       # Energy for activate commands per rank (pJ) (Joule)
system.mem_ctrl.dram.rank0.preEnergy          2747580                       # Energy for precharge commands per rank (pJ) (Joule)
system.mem_ctrl.dram.rank0.readEnergy        15515220                       # Energy for read commands per rank (pJ) (Joule)
system.mem_ctrl.dram.rank0.writeEnergy         125280                       # Energy for write commands per rank (pJ) (Joule)
system.mem_ctrl.dram.rank0.refreshEnergy 5381787840.000001                       # Energy for refresh commands per rank (pJ) (Joule)
system.mem_ctrl.dram.rank0.actBackEnergy   1678738920                       # Energy for active background per rank (pJ) (Joule)
system.mem_ctrl.dram.rank0.preBackEnergy  24766698720                       # Energy for precharge background per rank (pJ) (Joule)
system.mem_ctrl.dram.rank0.actPowerDownEnergy            0                       # Energy for active power-down per rank (pJ) (Joule)
system.mem_ctrl.dram.rank0.prePowerDownEnergy            0                       # Energy for precharge power-down per rank (pJ) (Joule)
system.mem_ctrl.dram.rank0.selfRefreshEnergy            0                       # Energy for self refresh per rank (pJ) (Joule)
system.mem_ctrl.dram.rank0.totalEnergy    31850782920                       # Total energy per rank (pJ) (Joule)
system.mem_ctrl.dram.rank0.averagePower    467.170594                       # Core power per rank (mW) (Watt)
system.mem_ctrl.dram.rank0.totalIdleTime            0                       # Total Idle time Per DRAM Rank (Tick)
system.mem_ctrl.dram.rank0.pwrStateTime::IDLE  64372358746                       # Time in different power states (Tick)
system.mem_ctrl.dram.rank0.pwrStateTime::REF   2276560000                       # Time in different power states (Tick)
system.mem_ctrl.dram.rank0.pwrStateTime::SREF            0                       # Time in different power states (Tick)
system.mem_ctrl.dram.rank0.pwrStateTime::PRE_PDN            0                       # Time in different power states (Tick)
system.mem_ctrl.dram.rank0.pwrStateTime::ACT   1529137254                       # Time in different power states (Tick)
system.mem_ctrl.dram.rank0.pwrStateTime::ACT_PDN            0                       # Time in different power states (Tick)
system.mem_ctrl.dram.rank1.actEnergy          5069400                       # Energy for activate commands per rank (pJ) (Joule)
system.mem_ctrl.dram.rank1.preEnergy          2694450                       # Energy for precharge commands per rank (pJ) (Joule)
system.mem_ctrl.dram.rank1.readEnergy        22855140                       # Energy for read commands per rank (pJ) (Joule)
system.mem_ctrl.dram.rank1.writeEnergy          57420                       # Energy for write commands per rank (pJ) (Joule)
system.mem_ctrl.dram.rank1.refreshEnergy 5381787840.000001                       # Energy for refresh commands per rank (pJ) (Joule)
system.mem_ctrl.dram.rank1.actBackEnergy   1695785910                       # Energy for active background per rank (pJ) (Joule)
system.mem_ctrl.dram.rank1.preBackEnergy  24752343360                       # Energy for precharge background per rank (pJ) (Joule)
system.mem_ctrl.dram.rank1.actPowerDownEnergy            0                       # Energy for active power-down per rank (pJ) (Joule)
system.mem_ctrl.dram.rank1.prePowerDownEnergy            0                       # Energy for precharge power-down per rank (pJ) (Joule)
system.mem_ctrl.dram.rank1.selfRefreshEnergy            0                       # Energy for self refresh per rank (pJ) (Joule)
system.mem_ctrl.dram.rank1.totalEnergy    31860593520                       # Total energy per rank (pJ) (Joule)
system.mem_ctrl.dram.rank1.averagePower    467.314491                       # Core power per rank (mW) (Watt)
system.mem_ctrl.dram.rank1.totalIdleTime            0                       # Total Idle time Per DRAM Rank (Tick)
system.mem_ctrl.dram.rank1.pwrStateTime::IDLE  64334451749                       # Time in different power states (Tick)
system.mem_ctrl.dram.rank1.pwrStateTime::REF   2276560000                       # Time in different power states (Tick)
system.mem_ctrl.dram.rank1.pwrStateTime::SREF            0                       # Time in different power states (Tick)
system.mem_ctrl.dram.rank1.pwrStateTime::PRE_PDN            0                       # Time in different power states (Tick)
system.mem_ctrl.dram.rank1.pwrStateTime::ACT   1567044251                       # Time in different power states (Tick)
system.mem_ctrl.dram.rank1.pwrStateTime::ACT_PDN            0                       # Time in different power states (Tick)
system.mem_ctrl.power_state.pwrStateResidencyTicks::UNDEFINED  68178056000                       # Cumulative time (in ticks) in various power states (Tick)
system.membus.transDist::ReadResp                3562                       # Transaction distribution (Count)
system.membus.transDist::WritebackDirty            65                       # Transaction distribution (Count)
system.membus.transDist::CleanEvict               519                       # Transaction distribution (Count)
system.membus.transDist::ReadExReq               1816                       # Transaction distribution (Count)
system.membus.transDist::ReadExResp              1816                       # Transaction distribution (Count)
system.membus.transDist::ReadSharedReq           3562                       # Transaction distribution (Count)
system.membus.pktCount_system.l2cache.mem_side_port::system.mem_ctrl.port        11340                       # Packet count per connected requestor and responder (Count)
system.membus.pktCount_system.l2cache.mem_side_port::total        11340                       # Packet count per connected requestor and responder (Count)
system.membus.pktCount::total                   11340                       # Packet count per connected requestor and responder (Count)
system.membus.pktSize_system.l2cache.mem_side_port::system.mem_ctrl.port       348352                       # Cumulative packet size per connected requestor and responder (Byte)
system.membus.pktSize_system.l2cache.mem_side_port::total       348352                       # Cumulative packet size per connected requestor and responder (Byte)
system.membus.pktSize::total                   348352                       # Cumulative packet size per connected requestor and responder (Byte)
system.membus.snoops                                0                       # Total snoops (Count)
system.membus.snoopTraffic                          0                       # Total snoop traffic (Byte)
system.membus.snoopFanout::samples               5378                       # Request fanout histogram (Count)
system.membus.snoopFanout::mean                     0                       # Request fanout histogram (Count)
system.membus.snoopFanout::stdev                    0                       # Request fanout histogram (Count)
system.membus.snoopFanout::underflows               0      0.00%      0.00% # Request fanout histogram (Count)
system.membus.snoopFanout::0                     5378    100.00%    100.00% # Request fanout histogram (Count)
system.membus.snoopFanout::1                        0      0.00%    100.00% # Request fanout histogram (Count)
system.membus.snoopFanout::overflows                0      0.00%    100.00% # Request fanout histogram (Count)
system.membus.snoopFanout::min_value                0                       # Request fanout histogram (Count)
system.membus.snoopFanout::max_value                0                       # Request fanout histogram (Count)
system.membus.snoopFanout::total                 5378                       # Request fanout histogram (Count)
system.membus.power_state.pwrStateResidencyTicks::UNDEFINED  68178056000                       # Cumulative time (in ticks) in various power states (Tick)
system.membus.reqLayer2.occupancy             6248300                       # Layer occupancy (ticks) (Tick)
system.membus.reqLayer2.utilization               0.0                       # Layer utilization (Ratio)
system.membus.respLayer0.occupancy           28351010                       # Layer occupancy (ticks) (Tick)
system.membus.respLayer0.utilization              0.0                       # Layer utilization (Ratio)
system.membus.snoop_filter.totRequests           5962                       # Total number of requests made to the snoop filter. (Count)
system.membus.snoop_filter.hitSingleRequests          585                       # Number of requests hitting in the snoop filter with a single holder of the requested data. (Count)
system.membus.snoop_filter.hitMultiRequests            0                       # Number of requests hitting in the snoop filter with multiple (>1) holders of the requested data. (Count)
system.membus.snoop_filter.totSnoops                0                       # Total number of snoops made to the snoop filter. (Count)
system.membus.snoop_filter.hitSingleSnoops            0                       # Number of snoops hitting in the snoop filter with a single holder of the requested data. (Count)
system.membus.snoop_filter.hitMultiSnoops            0                       # Number of snoops hitting in the snoop filter with multiple (>1) holders of the requested data. (Count)
system.workload.inst.arm                            0                       # number of arm instructions executed (Count)
system.workload.inst.quiesce                        0                       # number of quiesce instructions executed (Count)

---------- End Simulation Statistics   ----------
