
---------- Begin Simulation Statistics ----------
simSeconds                                   0.063521                       # Number of seconds simulated (Second)
simTicks                                  63520694000                       # Number of ticks simulated (Tick)
finalTick                                 63520694000                       # Number of ticks from beginning of simulation (restored from checkpoints and never reset) (Tick)
simFreq                                  1000000000000                       # The number of ticks per simulated second ((Tick/Second))
hostSeconds                                    474.40                       # Real time elapsed on the host (Second)
hostTickRate                                133896234                       # The number of ticks simulated per host second (ticks/s) ((Tick/Second))
hostMemory                                    8529460                       # Number of bytes of host memory used (Byte)
simInsts                                     50000002                       # Number of instructions simulated (Count)
simOps                                       94757851                       # Number of ops (including micro ops) simulated (Count)
hostInstRate                                   105396                       # Simulator instruction rate (inst/s) ((Count/Second))
hostOpRate                                     199741                       # Simulator op (including micro ops) rate (op/s) ((Count/Second))
system.clk_domain.clock                          1000                       # Clock period in ticks (Tick)
system.clk_domain.voltage_domain.voltage            1                       # Voltage in Volts (Volt)
system.cpu.numCycles                         63520695                       # Number of cpu cycles simulated (Cycle)
system.cpu.numWorkItemsStarted                      0                       # Number of work items this cpu started (Count)
system.cpu.numWorkItemsCompleted                    0                       # Number of work items this cpu completed (Count)
system.cpu.instsAdded                       177215821                       # Number of instructions added to the IQ (excludes non-spec) (Count)
system.cpu.nonSpecInstsAdded                   156854                       # Number of non-speculative instructions added to the IQ (Count)
system.cpu.instsIssued                      156066250                       # Number of instructions issued (Count)
system.cpu.squashedInstsIssued                 401807                       # Number of squashed instructions issued (Count)
system.cpu.squashedInstsExamined             82614824                       # Number of squashed instructions iterated over during squash; mainly for profiling (Count)
system.cpu.squashedOperandsExamined         118161240                       # Number of squashed operands that are examined and possibly removed from graph (Count)
system.cpu.squashedNonSpecRemoved              156818                       # Number of squashed non-spec instructions that were removed (Count)
system.cpu.numIssuedDist::samples            63494711                       # Number of insts issued each cycle (Count)
system.cpu.numIssuedDist::mean               2.457941                       # Number of insts issued each cycle (Count)
system.cpu.numIssuedDist::stdev              2.721932                       # Number of insts issued each cycle (Count)
system.cpu.numIssuedDist::underflows                0      0.00%      0.00% # Number of insts issued each cycle (Count)
system.cpu.numIssuedDist::0                  28735812     45.26%     45.26% # Number of insts issued each cycle (Count)
system.cpu.numIssuedDist::1                   3691955      5.81%     51.07% # Number of insts issued each cycle (Count)
system.cpu.numIssuedDist::2                   4300680      6.77%     57.84% # Number of insts issued each cycle (Count)
system.cpu.numIssuedDist::3                   4089395      6.44%     64.29% # Number of insts issued each cycle (Count)
system.cpu.numIssuedDist::4                   3936546      6.20%     70.49% # Number of insts issued each cycle (Count)
system.cpu.numIssuedDist::5                   5446666      8.58%     79.06% # Number of insts issued each cycle (Count)
system.cpu.numIssuedDist::6                   6872008     10.82%     89.89% # Number of insts issued each cycle (Count)
system.cpu.numIssuedDist::7                   4080004      6.43%     96.31% # Number of insts issued each cycle (Count)
system.cpu.numIssuedDist::8                   2341645      3.69%    100.00% # Number of insts issued each cycle (Count)
system.cpu.numIssuedDist::overflows                 0      0.00%    100.00% # Number of insts issued each cycle (Count)
system.cpu.numIssuedDist::min_value                 0                       # Number of insts issued each cycle (Count)
system.cpu.numIssuedDist::max_value                 8                       # Number of insts issued each cycle (Count)
system.cpu.numIssuedDist::total              63494711                       # Number of insts issued each cycle (Count)
system.cpu.statFuBusy::No_OpClass                   0      0.00%      0.00% # attempts to use FU when none available (Count)
system.cpu.statFuBusy::IntAlu                 3304170     91.60%     91.60% # attempts to use FU when none available (Count)
system.cpu.statFuBusy::IntMult                      0      0.00%     91.60% # attempts to use FU when none available (Count)
system.cpu.statFuBusy::IntDiv                       0      0.00%     91.60% # attempts to use FU when none available (Count)
system.cpu.statFuBusy::FloatAdd                     0      0.00%     91.60% # attempts to use FU when none available (Count)
system.cpu.statFuBusy::FloatCmp                     0      0.00%     91.60% # attempts to use FU when none available (Count)
system.cpu.statFuBusy::FloatCvt                     0      0.00%     91.60% # attempts to use FU when none available (Count)
system.cpu.statFuBusy::FloatMult                    0      0.00%     91.60% # attempts to use FU when none available (Count)
system.cpu.statFuBusy::FloatMultAcc                 0      0.00%     91.60% # attempts to use FU when none available (Count)
system.cpu.statFuBusy::FloatDiv                     0      0.00%     91.60% # attempts to use FU when none available (Count)
system.cpu.statFuBusy::FloatMisc                    0      0.00%     91.60% # attempts to use FU when none available (Count)
system.cpu.statFuBusy::FloatSqrt                    0      0.00%     91.60% # attempts to use FU when none available (Count)
system.cpu.statFuBusy::SimdAdd                      0      0.00%     91.60% # attempts to use FU when none available (Count)
system.cpu.statFuBusy::SimdAddAcc                   0      0.00%     91.60% # attempts to use FU when none available (Count)
system.cpu.statFuBusy::SimdAlu                     11      0.00%     91.60% # attempts to use FU when none available (Count)
system.cpu.statFuBusy::SimdCmp                      0      0.00%     91.60% # attempts to use FU when none available (Count)
system.cpu.statFuBusy::SimdCvt                      8      0.00%     91.60% # attempts to use FU when none available (Count)
system.cpu.statFuBusy::SimdMisc                     8      0.00%     91.60% # attempts to use FU when none available (Count)
system.cpu.statFuBusy::SimdMult                     0      0.00%     91.60% # attempts to use FU when none available (Count)
system.cpu.statFuBusy::SimdMultAcc                  0      0.00%     91.60% # attempts to use FU when none available (Count)
system.cpu.statFuBusy::SimdShift                    0      0.00%     91.60% # attempts to use FU when none available (Count)
system.cpu.statFuBusy::SimdShiftAcc                 0      0.00%     91.60% # attempts to use FU when none available (Count)
system.cpu.statFuBusy::SimdDiv                      0      0.00%     91.60% # attempts to use FU when none available (Count)
system.cpu.statFuBusy::SimdSqrt                     0      0.00%     91.60% # attempts to use FU when none available (Count)
system.cpu.statFuBusy::SimdFloatAdd                 0      0.00%     91.60% # attempts to use FU when none available (Count)
system.cpu.statFuBusy::SimdFloatAlu                 0      0.00%     91.60% # attempts to use FU when none available (Count)
system.cpu.statFuBusy::SimdFloatCmp                 0      0.00%     91.60% # attempts to use FU when none available (Count)
system.cpu.statFuBusy::SimdFloatCvt                 0      0.00%     91.60% # attempts to use FU when none available (Count)
system.cpu.statFuBusy::SimdFloatDiv                 0      0.00%     91.60% # attempts to use FU when none available (Count)
system.cpu.statFuBusy::SimdFloatMisc                0      0.00%     91.60% # attempts to use FU when none available (Count)
system.cpu.statFuBusy::SimdFloatMult                0      0.00%     91.60% # attempts to use FU when none available (Count)
system.cpu.statFuBusy::SimdFloatMultAcc             0      0.00%     91.60% # attempts to use FU when none available (Count)
system.cpu.statFuBusy::SimdFloatSqrt                0      0.00%     91.60% # attempts to use FU when none available (Count)
system.cpu.statFuBusy::SimdReduceAdd                0      0.00%     91.60% # attempts to use FU when none available (Count)
system.cpu.statFuBusy::SimdReduceAlu                0      0.00%     91.60% # attempts to use FU when none available (Count)
system.cpu.statFuBusy::SimdReduceCmp                0      0.00%     91.60% # attempts to use FU when none available (Count)
system.cpu.statFuBusy::SimdFloatReduceAdd            0      0.00%     91.60% # attempts to use FU when none available (Count)
system.cpu.statFuBusy::SimdFloatReduceCmp            0      0.00%     91.60% # attempts to use FU when none available (Count)
system.cpu.statFuBusy::SimdAes                      0      0.00%     91.60% # attempts to use FU when none available (Count)
system.cpu.statFuBusy::SimdAesMix                   0      0.00%     91.60% # attempts to use FU when none available (Count)
system.cpu.statFuBusy::SimdSha1Hash                 0      0.00%     91.60% # attempts to use FU when none available (Count)
system.cpu.statFuBusy::SimdSha1Hash2                0      0.00%     91.60% # attempts to use FU when none available (Count)
system.cpu.statFuBusy::SimdSha256Hash               0      0.00%     91.60% # attempts to use FU when none available (Count)
system.cpu.statFuBusy::SimdSha256Hash2              0      0.00%     91.60% # attempts to use FU when none available (Count)
system.cpu.statFuBusy::SimdShaSigma2                0      0.00%     91.60% # attempts to use FU when none available (Count)
system.cpu.statFuBusy::SimdShaSigma3                0      0.00%     91.60% # attempts to use FU when none available (Count)
system.cpu.statFuBusy::SimdPredAlu                  0      0.00%     91.60% # attempts to use FU when none available (Count)
system.cpu.statFuBusy::MemRead                 177445      4.92%     96.52% # attempts to use FU when none available (Count)
system.cpu.statFuBusy::MemWrite                 25159      0.70%     97.21% # attempts to use FU when none available (Count)
system.cpu.statFuBusy::FloatMemRead                 5      0.00%     97.21% # attempts to use FU when none available (Count)
system.cpu.statFuBusy::FloatMemWrite           100526      2.79%    100.00% # attempts to use FU when none available (Count)
system.cpu.statFuBusy::IprAccess                    0      0.00%    100.00% # attempts to use FU when none available (Count)
system.cpu.statFuBusy::InstPrefetch                 0      0.00%    100.00% # attempts to use FU when none available (Count)
system.cpu.statIssuedInstType_0::No_OpClass       931249      0.60%      0.60% # Number of instructions issued per FU type, per thread (Count)
system.cpu.statIssuedInstType_0::IntAlu     124326950     79.66%     80.26% # Number of instructions issued per FU type, per thread (Count)
system.cpu.statIssuedInstType_0::IntMult       230152      0.15%     80.41% # Number of instructions issued per FU type, per thread (Count)
system.cpu.statIssuedInstType_0::IntDiv            36      0.00%     80.41% # Number of instructions issued per FU type, per thread (Count)
system.cpu.statIssuedInstType_0::FloatAdd        50759      0.03%     80.44% # Number of instructions issued per FU type, per thread (Count)
system.cpu.statIssuedInstType_0::FloatCmp            0      0.00%     80.44% # Number of instructions issued per FU type, per thread (Count)
system.cpu.statIssuedInstType_0::FloatCvt            0      0.00%     80.44% # Number of instructions issued per FU type, per thread (Count)
system.cpu.statIssuedInstType_0::FloatMult            0      0.00%     80.44% # Number of instructions issued per FU type, per thread (Count)
system.cpu.statIssuedInstType_0::FloatMultAcc            0      0.00%     80.44% # Number of instructions issued per FU type, per thread (Count)
system.cpu.statIssuedInstType_0::FloatDiv            0      0.00%     80.44% # Number of instructions issued per FU type, per thread (Count)
system.cpu.statIssuedInstType_0::FloatMisc            0      0.00%     80.44% # Number of instructions issued per FU type, per thread (Count)
system.cpu.statIssuedInstType_0::FloatSqrt            0      0.00%     80.44% # Number of instructions issued per FU type, per thread (Count)
system.cpu.statIssuedInstType_0::SimdAdd            0      0.00%     80.44% # Number of instructions issued per FU type, per thread (Count)
system.cpu.statIssuedInstType_0::SimdAddAcc            0      0.00%     80.44% # Number of instructions issued per FU type, per thread (Count)
system.cpu.statIssuedInstType_0::SimdAlu          122      0.00%     80.44% # Number of instructions issued per FU type, per thread (Count)
system.cpu.statIssuedInstType_0::SimdCmp            0      0.00%     80.44% # Number of instructions issued per FU type, per thread (Count)
system.cpu.statIssuedInstType_0::SimdCvt       257625      0.17%     80.60% # Number of instructions issued per FU type, per thread (Count)
system.cpu.statIssuedInstType_0::SimdMisc       572950      0.37%     80.97% # Number of instructions issued per FU type, per thread (Count)
system.cpu.statIssuedInstType_0::SimdMult            0      0.00%     80.97% # Number of instructions issued per FU type, per thread (Count)
system.cpu.statIssuedInstType_0::SimdMultAcc            0      0.00%     80.97% # Number of instructions issued per FU type, per thread (Count)
system.cpu.statIssuedInstType_0::SimdShift            0      0.00%     80.97% # Number of instructions issued per FU type, per thread (Count)
system.cpu.statIssuedInstType_0::SimdShiftAcc            0      0.00%     80.97% # Number of instructions issued per FU type, per thread (Count)
system.cpu.statIssuedInstType_0::SimdDiv            0      0.00%     80.97% # Number of instructions issued per FU type, per thread (Count)
system.cpu.statIssuedInstType_0::SimdSqrt            0      0.00%     80.97% # Number of instructions issued per FU type, per thread (Count)
system.cpu.statIssuedInstType_0::SimdFloatAdd            0      0.00%     80.97% # Number of instructions issued per FU type, per thread (Count)
system.cpu.statIssuedInstType_0::SimdFloatAlu            0      0.00%     80.97% # Number of instructions issued per FU type, per thread (Count)
system.cpu.statIssuedInstType_0::SimdFloatCmp            0      0.00%     80.97% # Number of instructions issued per FU type, per thread (Count)
system.cpu.statIssuedInstType_0::SimdFloatCvt            0      0.00%     80.97% # Number of instructions issued per FU type, per thread (Count)
system.cpu.statIssuedInstType_0::SimdFloatDiv            0      0.00%     80.97% # Number of instructions issued per FU type, per thread (Count)
system.cpu.statIssuedInstType_0::SimdFloatMisc            0      0.00%     80.97% # Number of instructions issued per FU type, per thread (Count)
system.cpu.statIssuedInstType_0::SimdFloatMult            0      0.00%     80.97% # Number of instructions issued per FU type, per thread (Count)
system.cpu.statIssuedInstType_0::SimdFloatMultAcc            0      0.00%     80.97% # Number of instructions issued per FU type, per thread (Count)
system.cpu.statIssuedInstType_0::SimdFloatSqrt            0      0.00%     80.97% # Number of instructions issued per FU type, per thread (Count)
system.cpu.statIssuedInstType_0::SimdReduceAdd            0      0.00%     80.97% # Number of instructions issued per FU type, per thread (Count)
system.cpu.statIssuedInstType_0::SimdReduceAlu            0      0.00%     80.97% # Number of instructions issued per FU type, per thread (Count)
system.cpu.statIssuedInstType_0::SimdReduceCmp            0      0.00%     80.97% # Number of instructions issued per FU type, per thread (Count)
system.cpu.statIssuedInstType_0::SimdFloatReduceAdd            0      0.00%     80.97% # Number of instructions issued per FU type, per thread (Count)
system.cpu.statIssuedInstType_0::SimdFloatReduceCmp            0      0.00%     80.97% # Number of instructions issued per FU type, per thread (Count)
system.cpu.statIssuedInstType_0::SimdAes            0      0.00%     80.97% # Number of instructions issued per FU type, per thread (Count)
system.cpu.statIssuedInstType_0::SimdAesMix            0      0.00%     80.97% # Number of instructions issued per FU type, per thread (Count)
system.cpu.statIssuedInstType_0::SimdSha1Hash            0      0.00%     80.97% # Number of instructions issued per FU type, per thread (Count)
system.cpu.statIssuedInstType_0::SimdSha1Hash2            0      0.00%     80.97% # Number of instructions issued per FU type, per thread (Count)
system.cpu.statIssuedInstType_0::SimdSha256Hash            0      0.00%     80.97% # Number of instructions issued per FU type, per thread (Count)
system.cpu.statIssuedInstType_0::SimdSha256Hash2            0      0.00%     80.97% # Number of instructions issued per FU type, per thread (Count)
system.cpu.statIssuedInstType_0::SimdShaSigma2            0      0.00%     80.97% # Number of instructions issued per FU type, per thread (Count)
system.cpu.statIssuedInstType_0::SimdShaSigma3            0      0.00%     80.97% # Number of instructions issued per FU type, per thread (Count)
system.cpu.statIssuedInstType_0::SimdPredAlu            0      0.00%     80.97% # Number of instructions issued per FU type, per thread (Count)
system.cpu.statIssuedInstType_0::MemRead     17709508     11.35%     92.32% # Number of instructions issued per FU type, per thread (Count)
system.cpu.statIssuedInstType_0::MemWrite     11284200      7.23%     99.55% # Number of instructions issued per FU type, per thread (Count)
system.cpu.statIssuedInstType_0::FloatMemRead       400285      0.26%     99.81% # Number of instructions issued per FU type, per thread (Count)
system.cpu.statIssuedInstType_0::FloatMemWrite       302414      0.19%    100.00% # Number of instructions issued per FU type, per thread (Count)
system.cpu.statIssuedInstType_0::IprAccess            0      0.00%    100.00% # Number of instructions issued per FU type, per thread (Count)
system.cpu.statIssuedInstType_0::InstPrefetch            0      0.00%    100.00% # Number of instructions issued per FU type, per thread (Count)
system.cpu.statIssuedInstType_0::total      156066250                       # Number of instructions issued per FU type, per thread (Count)
system.cpu.issueRate                         2.456935                       # Inst issue rate ((Count/Cycle))
system.cpu.fuBusy                             3607332                       # FU busy when requested (Count)
system.cpu.fuBusyRate                        0.023114                       # FU busy rate (busy events/executed inst) ((Count/Count))
system.cpu.intInstQueueReads                376216156                       # Number of integer instruction queue reads (Count)
system.cpu.intInstQueueWrites               256864015                       # Number of integer instruction queue writes (Count)
system.cpu.intInstQueueWakeupAccesses       144573246                       # Number of integer instruction queue wakeup accesses (Count)
system.cpu.fpInstQueueReads                   3420194                       # Number of floating instruction queue reads (Count)
system.cpu.fpInstQueueWrites                  3124633                       # Number of floating instruction queue writes (Count)
system.cpu.fpInstQueueWakeupAccesses          1392287                       # Number of floating instruction queue wakeup accesses (Count)
system.cpu.vecInstQueueReads                        0                       # Number of vector instruction queue reads (Count)
system.cpu.vecInstQueueWrites                       0                       # Number of vector instruction queue writes (Count)
system.cpu.vecInstQueueWakeupAccesses               0                       # Number of vector instruction queue wakeup accesses (Count)
system.cpu.intAluAccesses                   157006855                       # Number of integer alu accesses (Count)
system.cpu.fpAluAccesses                      1735478                       # Number of floating point alu accesses (Count)
system.cpu.vecAluAccesses                           0                       # Number of vector alu accesses (Count)
system.cpu.numInsts                         148715369                       # Number of executed instructions (Count)
system.cpu.numLoadInsts                      16903392                       # Number of load instructions executed (Count)
system.cpu.numSquashedInsts                   7350881                       # Number of squashed instructions skipped in execute (Count)
system.cpu.numSwp                                   0                       # Number of swp insts executed (Count)
system.cpu.numNop                                   0                       # Number of nop insts executed (Count)
system.cpu.numRefs                           27693180                       # Number of memory reference insts executed (Count)
system.cpu.numBranches                       16988479                       # Number of branches executed (Count)
system.cpu.numStoreInsts                     10789788                       # Number of stores executed (Count)
system.cpu.numRate                           2.341211                       # Inst execution rate ((Count/Cycle))
system.cpu.timesIdled                             451                       # Number of times that the entire CPU went into an idle state and unscheduled itself (Count)
system.cpu.idleCycles                           25984                       # Total number of cycles that the CPU has spent unscheduled due to idling (Cycle)
system.cpu.committedInsts                    50000002                       # Number of Instructions Simulated (Count)
system.cpu.committedOps                      94757851                       # Number of Ops (including micro ops) Simulated (Count)
system.cpu.cpi                               1.270414                       # CPI: Cycles Per Instruction ((Cycle/Count))
system.cpu.totalCpi                          1.270414                       # CPI: Total CPI of All Threads ((Cycle/Count))
system.cpu.ipc                               0.787145                       # IPC: Instructions Per Cycle ((Count/Cycle))
system.cpu.totalIpc                          0.787145                       # IPC: Total IPC of All Threads ((Count/Cycle))
system.cpu.intRegfileReads                  172696320                       # Number of integer regfile reads (Count)
system.cpu.intRegfileWrites                 103135465                       # Number of integer regfile writes (Count)
system.cpu.fpRegfileReads                     2056110                       # Number of floating regfile reads (Count)
system.cpu.fpRegfileWrites                     997574                       # Number of floating regfile writes (Count)
system.cpu.ccRegfileReads                    82177318                       # number of cc regfile reads (Count)
system.cpu.ccRegfileWrites                   44263547                       # number of cc regfile writes (Count)
system.cpu.miscRegfileReads                  63849229                       # number of misc regfile reads (Count)
system.cpu.MemDepUnit__0.insertedLoads       20597950                       # Number of loads inserted to the mem dependence unit. (Count)
system.cpu.MemDepUnit__0.insertedStores      13725966                       # Number of stores inserted to the mem dependence unit. (Count)
system.cpu.MemDepUnit__0.conflictingLoads       943744                       # Number of conflicting loads. (Count)
system.cpu.MemDepUnit__0.conflictingStores       142251                       # Number of conflicting stores. (Count)
system.cpu.MemDepUnit__1.insertedLoads              0                       # Number of loads inserted to the mem dependence unit. (Count)
system.cpu.MemDepUnit__1.insertedStores             0                       # Number of stores inserted to the mem dependence unit. (Count)
system.cpu.MemDepUnit__1.conflictingLoads            0                       # Number of conflicting loads. (Count)
system.cpu.MemDepUnit__1.conflictingStores            0                       # Number of conflicting stores. (Count)
system.cpu.MemDepUnit__2.insertedLoads              0                       # Number of loads inserted to the mem dependence unit. (Count)
system.cpu.MemDepUnit__2.insertedStores             0                       # Number of stores inserted to the mem dependence unit. (Count)
system.cpu.MemDepUnit__2.conflictingLoads            0                       # Number of conflicting loads. (Count)
system.cpu.MemDepUnit__2.conflictingStores            0                       # Number of conflicting stores. (Count)
system.cpu.MemDepUnit__3.insertedLoads              0                       # Number of loads inserted to the mem dependence unit. (Count)
system.cpu.MemDepUnit__3.insertedStores             0                       # Number of stores inserted to the mem dependence unit. (Count)
system.cpu.MemDepUnit__3.conflictingLoads            0                       # Number of conflicting loads. (Count)
system.cpu.MemDepUnit__3.conflictingStores            0                       # Number of conflicting stores. (Count)
system.cpu.branchPred.lookups                29341765                       # Number of BP lookups (Count)
system.cpu.branchPred.condPredicted          22383315                       # Number of conditional branches predicted (Count)
system.cpu.branchPred.condIncorrect           3922977                       # Number of conditional branches incorrect (Count)
system.cpu.branchPred.BTBLookups              4843895                       # Number of BTB lookups (Count)
system.cpu.branchPred.BTBHits                 3248669                       # Number of BTB hits (Count)
system.cpu.branchPred.BTBHitRatio            0.670673                       # BTB Hit Ratio (Ratio)
system.cpu.branchPred.RASUsed                 1510359                       # Number of times the RAS was used to get a target. (Count)
system.cpu.branchPred.RASIncorrect             112810                       # Number of incorrect RAS predictions. (Count)
system.cpu.branchPred.indirectLookups          604196                       # Number of indirect predictor lookups. (Count)
system.cpu.branchPred.indirectHits             140305                       # Number of indirect target hits. (Count)
system.cpu.branchPred.indirectMisses           463891                       # Number of indirect misses. (Count)
system.cpu.branchPred.indirectMispredicted           75                       # Number of mispredicted indirect branches. (Count)
system.cpu.commit.commitSquashedInsts        82587955                       # The number of squashed insts skipped by commit (Count)
system.cpu.commit.commitNonSpecStalls              36                       # The number of times commit has been forced to stall to communicate backwards (Count)
system.cpu.commit.branchMispredicts           2957080                       # The number of times a branch was mispredicted (Count)
system.cpu.commit.numCommittedDist::samples     51328210                       # Number of insts commited each cycle (Count)
system.cpu.commit.numCommittedDist::mean     1.846116                       # Number of insts commited each cycle (Count)
system.cpu.commit.numCommittedDist::stdev     2.499961                       # Number of insts commited each cycle (Count)
system.cpu.commit.numCommittedDist::underflows            0      0.00%      0.00% # Number of insts commited each cycle (Count)
system.cpu.commit.numCommittedDist::0        24683966     48.09%     48.09% # Number of insts commited each cycle (Count)
system.cpu.commit.numCommittedDist::1         6530091     12.72%     60.81% # Number of insts commited each cycle (Count)
system.cpu.commit.numCommittedDist::2         4851706      9.45%     70.26% # Number of insts commited each cycle (Count)
system.cpu.commit.numCommittedDist::3         5306922     10.34%     80.60% # Number of insts commited each cycle (Count)
system.cpu.commit.numCommittedDist::4         2498024      4.87%     85.47% # Number of insts commited each cycle (Count)
system.cpu.commit.numCommittedDist::5         1345910      2.62%     88.09% # Number of insts commited each cycle (Count)
system.cpu.commit.numCommittedDist::6         1215012      2.37%     90.46% # Number of insts commited each cycle (Count)
system.cpu.commit.numCommittedDist::7          580768      1.13%     91.59% # Number of insts commited each cycle (Count)
system.cpu.commit.numCommittedDist::8         4315811      8.41%    100.00% # Number of insts commited each cycle (Count)
system.cpu.commit.numCommittedDist::overflows            0      0.00%    100.00% # Number of insts commited each cycle (Count)
system.cpu.commit.numCommittedDist::min_value            0                       # Number of insts commited each cycle (Count)
system.cpu.commit.numCommittedDist::max_value            8                       # Number of insts commited each cycle (Count)
system.cpu.commit.numCommittedDist::total     51328210                       # Number of insts commited each cycle (Count)
system.cpu.commit.instsCommitted             50000002                       # Number of instructions committed (Count)
system.cpu.commit.opsCommitted               94757851                       # Number of ops (including micro ops) committed (Count)
system.cpu.commit.memRefs                    17616402                       # Number of memory references committed (Count)
system.cpu.commit.loads                      10653362                       # Number of loads committed (Count)
system.cpu.commit.amos                              0                       # Number of atomic instructions committed (Count)
system.cpu.commit.membars                          24                       # Number of memory barriers committed (Count)
system.cpu.commit.branches                   11816954                       # Number of branches committed (Count)
system.cpu.commit.vectorInstructions                0                       # Number of committed Vector instructions. (Count)
system.cpu.commit.floating                     797407                       # Number of committed floating point instructions. (Count)
system.cpu.commit.integer                    93840959                       # Number of committed integer instructions. (Count)
system.cpu.commit.functionCalls                489611                       # Number of function calls committed. (Count)
system.cpu.commit.committedInstType_0::No_OpClass       206366      0.22%      0.22% # Class of committed instruction (Count)
system.cpu.commit.committedInstType_0::IntAlu     76071907     80.28%     80.50% # Class of committed instruction (Count)
system.cpu.commit.committedInstType_0::IntMult       230150      0.24%     80.74% # Class of committed instruction (Count)
system.cpu.commit.committedInstType_0::IntDiv           28      0.00%     80.74% # Class of committed instruction (Count)
system.cpu.commit.committedInstType_0::FloatAdd        50759      0.05%     80.79% # Class of committed instruction (Count)
system.cpu.commit.committedInstType_0::FloatCmp            0      0.00%     80.79% # Class of committed instruction (Count)
system.cpu.commit.committedInstType_0::FloatCvt            0      0.00%     80.79% # Class of committed instruction (Count)
system.cpu.commit.committedInstType_0::FloatMult            0      0.00%     80.79% # Class of committed instruction (Count)
system.cpu.commit.committedInstType_0::FloatMultAcc            0      0.00%     80.79% # Class of committed instruction (Count)
system.cpu.commit.committedInstType_0::FloatDiv            0      0.00%     80.79% # Class of committed instruction (Count)
system.cpu.commit.committedInstType_0::FloatMisc            0      0.00%     80.79% # Class of committed instruction (Count)
system.cpu.commit.committedInstType_0::FloatSqrt            0      0.00%     80.79% # Class of committed instruction (Count)
system.cpu.commit.committedInstType_0::SimdAdd            0      0.00%     80.79% # Class of committed instruction (Count)
system.cpu.commit.committedInstType_0::SimdAddAcc            0      0.00%     80.79% # Class of committed instruction (Count)
system.cpu.commit.committedInstType_0::SimdAlu           98      0.00%     80.79% # Class of committed instruction (Count)
system.cpu.commit.committedInstType_0::SimdCmp            0      0.00%     80.79% # Class of committed instruction (Count)
system.cpu.commit.committedInstType_0::SimdCvt       113412      0.12%     80.91% # Class of committed instruction (Count)
system.cpu.commit.committedInstType_0::SimdMisc       468729      0.49%     81.41% # Class of committed instruction (Count)
system.cpu.commit.committedInstType_0::SimdMult            0      0.00%     81.41% # Class of committed instruction (Count)
system.cpu.commit.committedInstType_0::SimdMultAcc            0      0.00%     81.41% # Class of committed instruction (Count)
system.cpu.commit.committedInstType_0::SimdShift            0      0.00%     81.41% # Class of committed instruction (Count)
system.cpu.commit.committedInstType_0::SimdShiftAcc            0      0.00%     81.41% # Class of committed instruction (Count)
system.cpu.commit.committedInstType_0::SimdDiv            0      0.00%     81.41% # Class of committed instruction (Count)
system.cpu.commit.committedInstType_0::SimdSqrt            0      0.00%     81.41% # Class of committed instruction (Count)
system.cpu.commit.committedInstType_0::SimdFloatAdd            0      0.00%     81.41% # Class of committed instruction (Count)
system.cpu.commit.committedInstType_0::SimdFloatAlu            0      0.00%     81.41% # Class of committed instruction (Count)
system.cpu.commit.committedInstType_0::SimdFloatCmp            0      0.00%     81.41% # Class of committed instruction (Count)
system.cpu.commit.committedInstType_0::SimdFloatCvt            0      0.00%     81.41% # Class of committed instruction (Count)
system.cpu.commit.committedInstType_0::SimdFloatDiv            0      0.00%     81.41% # Class of committed instruction (Count)
system.cpu.commit.committedInstType_0::SimdFloatMisc            0      0.00%     81.41% # Class of committed instruction (Count)
system.cpu.commit.committedInstType_0::SimdFloatMult            0      0.00%     81.41% # Class of committed instruction (Count)
system.cpu.commit.committedInstType_0::SimdFloatMultAcc            0      0.00%     81.41% # Class of committed instruction (Count)
system.cpu.commit.committedInstType_0::SimdFloatSqrt            0      0.00%     81.41% # Class of committed instruction (Count)
system.cpu.commit.committedInstType_0::SimdReduceAdd            0      0.00%     81.41% # Class of committed instruction (Count)
system.cpu.commit.committedInstType_0::SimdReduceAlu            0      0.00%     81.41% # Class of committed instruction (Count)
system.cpu.commit.committedInstType_0::SimdReduceCmp            0      0.00%     81.41% # Class of committed instruction (Count)
system.cpu.commit.committedInstType_0::SimdFloatReduceAdd            0      0.00%     81.41% # Class of committed instruction (Count)
system.cpu.commit.committedInstType_0::SimdFloatReduceCmp            0      0.00%     81.41% # Class of committed instruction (Count)
system.cpu.commit.committedInstType_0::SimdAes            0      0.00%     81.41% # Class of committed instruction (Count)
system.cpu.commit.committedInstType_0::SimdAesMix            0      0.00%     81.41% # Class of committed instruction (Count)
system.cpu.commit.committedInstType_0::SimdSha1Hash            0      0.00%     81.41% # Class of committed instruction (Count)
system.cpu.commit.committedInstType_0::SimdSha1Hash2            0      0.00%     81.41% # Class of committed instruction (Count)
system.cpu.commit.committedInstType_0::SimdSha256Hash            0      0.00%     81.41% # Class of committed instruction (Count)
system.cpu.commit.committedInstType_0::SimdSha256Hash2            0      0.00%     81.41% # Class of committed instruction (Count)
system.cpu.commit.committedInstType_0::SimdShaSigma2            0      0.00%     81.41% # Class of committed instruction (Count)
system.cpu.commit.committedInstType_0::SimdShaSigma3            0      0.00%     81.41% # Class of committed instruction (Count)
system.cpu.commit.committedInstType_0::SimdPredAlu            0      0.00%     81.41% # Class of committed instruction (Count)
system.cpu.commit.committedInstType_0::MemRead     10539958     11.12%     92.53% # Class of committed instruction (Count)
system.cpu.commit.committedInstType_0::MemWrite      6962800      7.35%     99.88% # Class of committed instruction (Count)
system.cpu.commit.committedInstType_0::FloatMemRead       113404      0.12%    100.00% # Class of committed instruction (Count)
system.cpu.commit.committedInstType_0::FloatMemWrite          240      0.00%    100.00% # Class of committed instruction (Count)
system.cpu.commit.committedInstType_0::IprAccess            0      0.00%    100.00% # Class of committed instruction (Count)
system.cpu.commit.committedInstType_0::InstPrefetch            0      0.00%    100.00% # Class of committed instruction (Count)
system.cpu.commit.committedInstType_0::total     94757851                       # Class of committed instruction (Count)
system.cpu.commit.commitEligibleSamples       4315811                       # number cycles where commit BW limit reached (Cycle)
system.cpu.dcache.demandHits::cpu.data       22040378                       # number of demand (read+write) hits (Count)
system.cpu.dcache.demandHits::total          22040378                       # number of demand (read+write) hits (Count)
system.cpu.dcache.overallHits::cpu.data      22040378                       # number of overall hits (Count)
system.cpu.dcache.overallHits::total         22040378                       # number of overall hits (Count)
system.cpu.dcache.demandMisses::cpu.data        82733                       # number of demand (read+write) misses (Count)
system.cpu.dcache.demandMisses::total           82733                       # number of demand (read+write) misses (Count)
system.cpu.dcache.overallMisses::cpu.data        82733                       # number of overall misses (Count)
system.cpu.dcache.overallMisses::total          82733                       # number of overall misses (Count)
system.cpu.dcache.demandMissLatency::cpu.data   7476069999                       # number of demand (read+write) miss ticks (Tick)
system.cpu.dcache.demandMissLatency::total   7476069999                       # number of demand (read+write) miss ticks (Tick)
system.cpu.dcache.overallMissLatency::cpu.data   7476069999                       # number of overall miss ticks (Tick)
system.cpu.dcache.overallMissLatency::total   7476069999                       # number of overall miss ticks (Tick)
system.cpu.dcache.demandAccesses::cpu.data     22123111                       # number of demand (read+write) accesses (Count)
system.cpu.dcache.demandAccesses::total      22123111                       # number of demand (read+write) accesses (Count)
system.cpu.dcache.overallAccesses::cpu.data     22123111                       # number of overall (read+write) accesses (Count)
system.cpu.dcache.overallAccesses::total     22123111                       # number of overall (read+write) accesses (Count)
system.cpu.dcache.demandMissRate::cpu.data     0.003740                       # miss rate for demand accesses (Ratio)
system.cpu.dcache.demandMissRate::total      0.003740                       # miss rate for demand accesses (Ratio)
system.cpu.dcache.overallMissRate::cpu.data     0.003740                       # miss rate for overall accesses (Ratio)
system.cpu.dcache.overallMissRate::total     0.003740                       # miss rate for overall accesses (Ratio)
system.cpu.dcache.demandAvgMissLatency::cpu.data 90363.820954                       # average overall miss latency in ticks ((Tick/Count))
system.cpu.dcache.demandAvgMissLatency::total 90363.820954                       # average overall miss latency in ticks ((Tick/Count))
system.cpu.dcache.overallAvgMissLatency::cpu.data 90363.820954                       # average overall miss latency ((Tick/Count))
system.cpu.dcache.overallAvgMissLatency::total 90363.820954                       # average overall miss latency ((Tick/Count))
system.cpu.dcache.blockedCycles::no_mshrs         2081                       # number of cycles access was blocked (Cycle)
system.cpu.dcache.blockedCycles::no_targets            0                       # number of cycles access was blocked (Cycle)
system.cpu.dcache.blockedCauses::no_mshrs           62                       # number of times access was blocked (Count)
system.cpu.dcache.blockedCauses::no_targets            0                       # number of times access was blocked (Count)
system.cpu.dcache.avgBlocked::no_mshrs      33.564516                       # average number of cycles each access was blocked ((Cycle/Count))
system.cpu.dcache.avgBlocked::no_targets          nan                       # average number of cycles each access was blocked ((Cycle/Count))
system.cpu.dcache.writebacks::writebacks        64507                       # number of writebacks (Count)
system.cpu.dcache.writebacks::total             64507                       # number of writebacks (Count)
system.cpu.dcache.demandMshrHits::cpu.data        12407                       # number of demand (read+write) MSHR hits (Count)
system.cpu.dcache.demandMshrHits::total         12407                       # number of demand (read+write) MSHR hits (Count)
system.cpu.dcache.overallMshrHits::cpu.data        12407                       # number of overall MSHR hits (Count)
system.cpu.dcache.overallMshrHits::total        12407                       # number of overall MSHR hits (Count)
system.cpu.dcache.demandMshrMisses::cpu.data        70326                       # number of demand (read+write) MSHR misses (Count)
system.cpu.dcache.demandMshrMisses::total        70326                       # number of demand (read+write) MSHR misses (Count)
system.cpu.dcache.overallMshrMisses::cpu.data        70326                       # number of overall MSHR misses (Count)
system.cpu.dcache.overallMshrMisses::total        70326                       # number of overall MSHR misses (Count)
system.cpu.dcache.demandMshrMissLatency::cpu.data   6777690999                       # number of demand (read+write) MSHR miss ticks (Tick)
system.cpu.dcache.demandMshrMissLatency::total   6777690999                       # number of demand (read+write) MSHR miss ticks (Tick)
system.cpu.dcache.overallMshrMissLatency::cpu.data   6777690999                       # number of overall MSHR miss ticks (Tick)
system.cpu.dcache.overallMshrMissLatency::total   6777690999                       # number of overall MSHR miss ticks (Tick)
system.cpu.dcache.demandMshrMissRate::cpu.data     0.003179                       # mshr miss ratio for demand accesses (Ratio)
system.cpu.dcache.demandMshrMissRate::total     0.003179                       # mshr miss ratio for demand accesses (Ratio)
system.cpu.dcache.overallMshrMissRate::cpu.data     0.003179                       # mshr miss ratio for overall accesses (Ratio)
system.cpu.dcache.overallMshrMissRate::total     0.003179                       # mshr miss ratio for overall accesses (Ratio)
system.cpu.dcache.demandAvgMshrMissLatency::cpu.data 96375.323479                       # average overall mshr miss latency ((Tick/Count))
system.cpu.dcache.demandAvgMshrMissLatency::total 96375.323479                       # average overall mshr miss latency ((Tick/Count))
system.cpu.dcache.overallAvgMshrMissLatency::cpu.data 96375.323479                       # average overall mshr miss latency ((Tick/Count))
system.cpu.dcache.overallAvgMshrMissLatency::total 96375.323479                       # average overall mshr miss latency ((Tick/Count))
system.cpu.dcache.replacements                  69814                       # number of replacements (Count)
system.cpu.dcache.LockedRMWReadReq.hits::cpu.data           12                       # number of LockedRMWReadReq hits (Count)
system.cpu.dcache.LockedRMWReadReq.hits::total           12                       # number of LockedRMWReadReq hits (Count)
system.cpu.dcache.LockedRMWReadReq.accesses::cpu.data           12                       # number of LockedRMWReadReq accesses(hits+misses) (Count)
system.cpu.dcache.LockedRMWReadReq.accesses::total           12                       # number of LockedRMWReadReq accesses(hits+misses) (Count)
system.cpu.dcache.LockedRMWReadReq.mshrMissLatency::cpu.data       138000                       # number of LockedRMWReadReq MSHR miss ticks (Tick)
system.cpu.dcache.LockedRMWReadReq.mshrMissLatency::total       138000                       # number of LockedRMWReadReq MSHR miss ticks (Tick)
system.cpu.dcache.LockedRMWReadReq.avgMshrMissLatency::cpu.data          inf                       # average LockedRMWReadReq mshr miss latency ((Tick/Count))
system.cpu.dcache.LockedRMWReadReq.avgMshrMissLatency::total          inf                       # average LockedRMWReadReq mshr miss latency ((Tick/Count))
system.cpu.dcache.LockedRMWWriteReq.hits::cpu.data           12                       # number of LockedRMWWriteReq hits (Count)
system.cpu.dcache.LockedRMWWriteReq.hits::total           12                       # number of LockedRMWWriteReq hits (Count)
system.cpu.dcache.LockedRMWWriteReq.accesses::cpu.data           12                       # number of LockedRMWWriteReq accesses(hits+misses) (Count)
system.cpu.dcache.LockedRMWWriteReq.accesses::total           12                       # number of LockedRMWWriteReq accesses(hits+misses) (Count)
system.cpu.dcache.ReadReq.hits::cpu.data     15128728                       # number of ReadReq hits (Count)
system.cpu.dcache.ReadReq.hits::total        15128728                       # number of ReadReq hits (Count)
system.cpu.dcache.ReadReq.misses::cpu.data        31371                       # number of ReadReq misses (Count)
system.cpu.dcache.ReadReq.misses::total         31371                       # number of ReadReq misses (Count)
system.cpu.dcache.ReadReq.missLatency::cpu.data   1886910000                       # number of ReadReq miss ticks (Tick)
system.cpu.dcache.ReadReq.missLatency::total   1886910000                       # number of ReadReq miss ticks (Tick)
system.cpu.dcache.ReadReq.accesses::cpu.data     15160099                       # number of ReadReq accesses(hits+misses) (Count)
system.cpu.dcache.ReadReq.accesses::total     15160099                       # number of ReadReq accesses(hits+misses) (Count)
system.cpu.dcache.ReadReq.missRate::cpu.data     0.002069                       # miss rate for ReadReq accesses (Ratio)
system.cpu.dcache.ReadReq.missRate::total     0.002069                       # miss rate for ReadReq accesses (Ratio)
system.cpu.dcache.ReadReq.avgMissLatency::cpu.data 60148.226069                       # average ReadReq miss latency ((Tick/Count))
system.cpu.dcache.ReadReq.avgMissLatency::total 60148.226069                       # average ReadReq miss latency ((Tick/Count))
system.cpu.dcache.ReadReq.mshrHits::cpu.data         8654                       # number of ReadReq MSHR hits (Count)
system.cpu.dcache.ReadReq.mshrHits::total         8654                       # number of ReadReq MSHR hits (Count)
system.cpu.dcache.ReadReq.mshrMisses::cpu.data        22717                       # number of ReadReq MSHR misses (Count)
system.cpu.dcache.ReadReq.mshrMisses::total        22717                       # number of ReadReq MSHR misses (Count)
system.cpu.dcache.ReadReq.mshrMissLatency::cpu.data   1383413000                       # number of ReadReq MSHR miss ticks (Tick)
system.cpu.dcache.ReadReq.mshrMissLatency::total   1383413000                       # number of ReadReq MSHR miss ticks (Tick)
system.cpu.dcache.ReadReq.mshrMissRate::cpu.data     0.001498                       # mshr miss rate for ReadReq accesses (Ratio)
system.cpu.dcache.ReadReq.mshrMissRate::total     0.001498                       # mshr miss rate for ReadReq accesses (Ratio)
system.cpu.dcache.ReadReq.avgMshrMissLatency::cpu.data 60897.697759                       # average ReadReq mshr miss latency ((Tick/Count))
system.cpu.dcache.ReadReq.avgMshrMissLatency::total 60897.697759                       # average ReadReq mshr miss latency ((Tick/Count))
system.cpu.dcache.WriteReq.hits::cpu.data      6911650                       # number of WriteReq hits (Count)
system.cpu.dcache.WriteReq.hits::total        6911650                       # number of WriteReq hits (Count)
system.cpu.dcache.WriteReq.misses::cpu.data        51362                       # number of WriteReq misses (Count)
system.cpu.dcache.WriteReq.misses::total        51362                       # number of WriteReq misses (Count)
system.cpu.dcache.WriteReq.missLatency::cpu.data   5589159999                       # number of WriteReq miss ticks (Tick)
system.cpu.dcache.WriteReq.missLatency::total   5589159999                       # number of WriteReq miss ticks (Tick)
system.cpu.dcache.WriteReq.accesses::cpu.data      6963012                       # number of WriteReq accesses(hits+misses) (Count)
system.cpu.dcache.WriteReq.accesses::total      6963012                       # number of WriteReq accesses(hits+misses) (Count)
system.cpu.dcache.WriteReq.missRate::cpu.data     0.007376                       # miss rate for WriteReq accesses (Ratio)
system.cpu.dcache.WriteReq.missRate::total     0.007376                       # miss rate for WriteReq accesses (Ratio)
system.cpu.dcache.WriteReq.avgMissLatency::cpu.data 108818.971204                       # average WriteReq miss latency ((Tick/Count))
system.cpu.dcache.WriteReq.avgMissLatency::total 108818.971204                       # average WriteReq miss latency ((Tick/Count))
system.cpu.dcache.WriteReq.mshrHits::cpu.data         3753                       # number of WriteReq MSHR hits (Count)
system.cpu.dcache.WriteReq.mshrHits::total         3753                       # number of WriteReq MSHR hits (Count)
system.cpu.dcache.WriteReq.mshrMisses::cpu.data        47609                       # number of WriteReq MSHR misses (Count)
system.cpu.dcache.WriteReq.mshrMisses::total        47609                       # number of WriteReq MSHR misses (Count)
system.cpu.dcache.WriteReq.mshrMissLatency::cpu.data   5394277999                       # number of WriteReq MSHR miss ticks (Tick)
system.cpu.dcache.WriteReq.mshrMissLatency::total   5394277999                       # number of WriteReq MSHR miss ticks (Tick)
system.cpu.dcache.WriteReq.mshrMissRate::cpu.data     0.006837                       # mshr miss rate for WriteReq accesses (Ratio)
system.cpu.dcache.WriteReq.mshrMissRate::total     0.006837                       # mshr miss rate for WriteReq accesses (Ratio)
system.cpu.dcache.WriteReq.avgMshrMissLatency::cpu.data 113303.745069                       # average WriteReq mshr miss latency ((Tick/Count))
system.cpu.dcache.WriteReq.avgMshrMissLatency::total 113303.745069                       # average WriteReq mshr miss latency ((Tick/Count))
system.cpu.dcache.power_state.pwrStateResidencyTicks::UNDEFINED  63520694000                       # Cumulative time (in ticks) in various power states (Tick)
system.cpu.dcache.tags.tagsInUse           511.353401                       # Average ticks per tags in use ((Tick/Count))
system.cpu.dcache.tags.totalRefs             22110728                       # Total number of references to valid blocks. (Count)
system.cpu.dcache.tags.sampledRefs              70326                       # Sample count of references to valid blocks. (Count)
system.cpu.dcache.tags.avgRefs             314.403322                       # Average number of references to valid blocks. ((Count/Count))
system.cpu.dcache.tags.warmupTick              222000                       # The tick when the warmup percentage was hit. (Tick)
system.cpu.dcache.tags.occupancies::cpu.data   511.353401                       # Average occupied blocks per tick, per requestor ((Count/Tick))
system.cpu.dcache.tags.avgOccs::cpu.data     0.998737                       # Average percentage of cache occupancy ((Ratio/Tick))
system.cpu.dcache.tags.avgOccs::total        0.998737                       # Average percentage of cache occupancy ((Ratio/Tick))
system.cpu.dcache.tags.occupanciesTaskId::1024          512                       # Occupied blocks per task id (Count)
system.cpu.dcache.tags.ageTaskId_1024::0            4                       # Occupied blocks per task id, per block age (Count)
system.cpu.dcache.tags.ageTaskId_1024::1           60                       # Occupied blocks per task id, per block age (Count)
system.cpu.dcache.tags.ageTaskId_1024::2          362                       # Occupied blocks per task id, per block age (Count)
system.cpu.dcache.tags.ageTaskId_1024::3           43                       # Occupied blocks per task id, per block age (Count)
system.cpu.dcache.tags.ageTaskId_1024::4           43                       # Occupied blocks per task id, per block age (Count)
system.cpu.dcache.tags.ratioOccsTaskId::1024            1                       # Ratio of occupied blocks and all blocks, per task id (Ratio)
system.cpu.dcache.tags.tagAccesses           88562866                       # Number of tag accesses (Count)
system.cpu.dcache.tags.dataAccesses          88562866                       # Number of data accesses (Count)
system.cpu.dcache.tags.power_state.pwrStateResidencyTicks::UNDEFINED  63520694000                       # Cumulative time (in ticks) in various power states (Tick)
system.cpu.decode.idleCycles                 17207432                       # Number of cycles decode is idle (Cycle)
system.cpu.decode.blockedCycles              11750093                       # Number of cycles decode is blocked (Cycle)
system.cpu.decode.runCycles                  29185441                       # Number of cycles decode is running (Cycle)
system.cpu.decode.unblockCycles               2392735                       # Number of cycles decode is unblocking (Cycle)
system.cpu.decode.squashCycles                2959010                       # Number of cycles decode is squashing (Cycle)
system.cpu.decode.branchResolved              4039058                       # Number of times decode resolved a branch (Count)
system.cpu.decode.branchMispred               1095498                       # Number of times decode detected a branch misprediction (Count)
system.cpu.decode.decodedInsts              215542318                       # Number of instructions handled by decode (Count)
system.cpu.decode.squashedInsts               6532883                       # Number of squashed instructions handled by decode (Count)
system.cpu.fetch.icacheStallCycles           18640418                       # Number of cycles fetch is stalled on an Icache miss (Cycle)
system.cpu.fetch.insts                      129046582                       # Number of instructions fetch has processed (Count)
system.cpu.fetch.branches                    29341765                       # Number of branches that fetch encountered (Count)
system.cpu.fetch.predictedBranches            4899333                       # Number of branches that fetch has predicted taken (Count)
system.cpu.fetch.cycles                      39987598                       # Number of cycles fetch has run and was not squashing or blocked (Cycle)
system.cpu.fetch.squashCycles                 8001988                       # Number of cycles fetch has spent squashing (Cycle)
system.cpu.fetch.miscStallCycles                76094                       # Number of cycles fetch has spent waiting on interrupts, or bad addresses, or out of MSHRs (Cycle)
system.cpu.fetch.pendingTrapStallCycles        789581                       # Number of stall cycles due to pending traps (Cycle)
system.cpu.fetch.icacheWaitRetryStallCycles           26                       # Number of stall cycles due to full MSHR (Cycle)
system.cpu.fetch.cacheLines                  16407549                       # Number of cache lines fetched (Count)
system.cpu.fetch.icacheSquashes               1067258                       # Number of outstanding Icache misses that were squashed (Count)
system.cpu.fetch.nisnDist::samples           63494711                       # Number of instructions fetched each cycle (Total) (Count)
system.cpu.fetch.nisnDist::mean              3.833505                       # Number of instructions fetched each cycle (Total) (Count)
system.cpu.fetch.nisnDist::stdev             3.713806                       # Number of instructions fetched each cycle (Total) (Count)
system.cpu.fetch.nisnDist::underflows               0      0.00%      0.00% # Number of instructions fetched each cycle (Total) (Count)
system.cpu.fetch.nisnDist::0                 27397308     43.15%     43.15% # Number of instructions fetched each cycle (Total) (Count)
system.cpu.fetch.nisnDist::1                  1275200      2.01%     45.16% # Number of instructions fetched each cycle (Total) (Count)
system.cpu.fetch.nisnDist::2                  1884946      2.97%     48.13% # Number of instructions fetched each cycle (Total) (Count)
system.cpu.fetch.nisnDist::3                  1639772      2.58%     50.71% # Number of instructions fetched each cycle (Total) (Count)
system.cpu.fetch.nisnDist::4                  2152203      3.39%     54.10% # Number of instructions fetched each cycle (Total) (Count)
system.cpu.fetch.nisnDist::5                  1232481      1.94%     56.04% # Number of instructions fetched each cycle (Total) (Count)
system.cpu.fetch.nisnDist::6                  1533314      2.41%     58.45% # Number of instructions fetched each cycle (Total) (Count)
system.cpu.fetch.nisnDist::7                  1564127      2.46%     60.92% # Number of instructions fetched each cycle (Total) (Count)
system.cpu.fetch.nisnDist::8                 24815360     39.08%    100.00% # Number of instructions fetched each cycle (Total) (Count)
system.cpu.fetch.nisnDist::overflows                0      0.00%    100.00% # Number of instructions fetched each cycle (Total) (Count)
system.cpu.fetch.nisnDist::min_value                0                       # Number of instructions fetched each cycle (Total) (Count)
system.cpu.fetch.nisnDist::max_value                8                       # Number of instructions fetched each cycle (Total) (Count)
system.cpu.fetch.nisnDist::total             63494711                       # Number of instructions fetched each cycle (Total) (Count)
system.cpu.fetch.branchRate                  0.461924                       # Number of branch fetches per cycle (Ratio)
system.cpu.fetch.rate                        2.031568                       # Number of inst fetches per cycle ((Count/Cycle))
system.cpu.icache.demandHits::cpu.inst       16406172                       # number of demand (read+write) hits (Count)
system.cpu.icache.demandHits::total          16406172                       # number of demand (read+write) hits (Count)
system.cpu.icache.overallHits::cpu.inst      16406172                       # number of overall hits (Count)
system.cpu.icache.overallHits::total         16406172                       # number of overall hits (Count)
system.cpu.icache.demandMisses::cpu.inst         1377                       # number of demand (read+write) misses (Count)
system.cpu.icache.demandMisses::total            1377                       # number of demand (read+write) misses (Count)
system.cpu.icache.overallMisses::cpu.inst         1377                       # number of overall misses (Count)
system.cpu.icache.overallMisses::total           1377                       # number of overall misses (Count)
system.cpu.icache.demandMissLatency::cpu.inst     94319000                       # number of demand (read+write) miss ticks (Tick)
system.cpu.icache.demandMissLatency::total     94319000                       # number of demand (read+write) miss ticks (Tick)
system.cpu.icache.overallMissLatency::cpu.inst     94319000                       # number of overall miss ticks (Tick)
system.cpu.icache.overallMissLatency::total     94319000                       # number of overall miss ticks (Tick)
system.cpu.icache.demandAccesses::cpu.inst     16407549                       # number of demand (read+write) accesses (Count)
system.cpu.icache.demandAccesses::total      16407549                       # number of demand (read+write) accesses (Count)
system.cpu.icache.overallAccesses::cpu.inst     16407549                       # number of overall (read+write) accesses (Count)
system.cpu.icache.overallAccesses::total     16407549                       # number of overall (read+write) accesses (Count)
system.cpu.icache.demandMissRate::cpu.inst     0.000084                       # miss rate for demand accesses (Ratio)
system.cpu.icache.demandMissRate::total      0.000084                       # miss rate for demand accesses (Ratio)
system.cpu.icache.overallMissRate::cpu.inst     0.000084                       # miss rate for overall accesses (Ratio)
system.cpu.icache.overallMissRate::total     0.000084                       # miss rate for overall accesses (Ratio)
system.cpu.icache.demandAvgMissLatency::cpu.inst 68496.005810                       # average overall miss latency in ticks ((Tick/Count))
system.cpu.icache.demandAvgMissLatency::total 68496.005810                       # average overall miss latency in ticks ((Tick/Count))
system.cpu.icache.overallAvgMissLatency::cpu.inst 68496.005810                       # average overall miss latency ((Tick/Count))
system.cpu.icache.overallAvgMissLatency::total 68496.005810                       # average overall miss latency ((Tick/Count))
system.cpu.icache.blockedCycles::no_mshrs          160                       # number of cycles access was blocked (Cycle)
system.cpu.icache.blockedCycles::no_targets            0                       # number of cycles access was blocked (Cycle)
system.cpu.icache.blockedCauses::no_mshrs            5                       # number of times access was blocked (Count)
system.cpu.icache.blockedCauses::no_targets            0                       # number of times access was blocked (Count)
system.cpu.icache.avgBlocked::no_mshrs             32                       # average number of cycles each access was blocked ((Cycle/Count))
system.cpu.icache.avgBlocked::no_targets          nan                       # average number of cycles each access was blocked ((Cycle/Count))
system.cpu.icache.demandMshrHits::cpu.inst          287                       # number of demand (read+write) MSHR hits (Count)
system.cpu.icache.demandMshrHits::total           287                       # number of demand (read+write) MSHR hits (Count)
system.cpu.icache.overallMshrHits::cpu.inst          287                       # number of overall MSHR hits (Count)
system.cpu.icache.overallMshrHits::total          287                       # number of overall MSHR hits (Count)
system.cpu.icache.demandMshrMisses::cpu.inst         1090                       # number of demand (read+write) MSHR misses (Count)
system.cpu.icache.demandMshrMisses::total         1090                       # number of demand (read+write) MSHR misses (Count)
system.cpu.icache.overallMshrMisses::cpu.inst         1090                       # number of overall MSHR misses (Count)
system.cpu.icache.overallMshrMisses::total         1090                       # number of overall MSHR misses (Count)
system.cpu.icache.demandMshrMissLatency::cpu.inst     74608000                       # number of demand (read+write) MSHR miss ticks (Tick)
system.cpu.icache.demandMshrMissLatency::total     74608000                       # number of demand (read+write) MSHR miss ticks (Tick)
system.cpu.icache.overallMshrMissLatency::cpu.inst     74608000                       # number of overall MSHR miss ticks (Tick)
system.cpu.icache.overallMshrMissLatency::total     74608000                       # number of overall MSHR miss ticks (Tick)
system.cpu.icache.demandMshrMissRate::cpu.inst     0.000066                       # mshr miss ratio for demand accesses (Ratio)
system.cpu.icache.demandMshrMissRate::total     0.000066                       # mshr miss ratio for demand accesses (Ratio)
system.cpu.icache.overallMshrMissRate::cpu.inst     0.000066                       # mshr miss ratio for overall accesses (Ratio)
system.cpu.icache.overallMshrMissRate::total     0.000066                       # mshr miss ratio for overall accesses (Ratio)
system.cpu.icache.demandAvgMshrMissLatency::cpu.inst 68447.706422                       # average overall mshr miss latency ((Tick/Count))
system.cpu.icache.demandAvgMshrMissLatency::total 68447.706422                       # average overall mshr miss latency ((Tick/Count))
system.cpu.icache.overallAvgMshrMissLatency::cpu.inst 68447.706422                       # average overall mshr miss latency ((Tick/Count))
system.cpu.icache.overallAvgMshrMissLatency::total 68447.706422                       # average overall mshr miss latency ((Tick/Count))
system.cpu.icache.replacements                    658                       # number of replacements (Count)
system.cpu.icache.ReadReq.hits::cpu.inst     16406172                       # number of ReadReq hits (Count)
system.cpu.icache.ReadReq.hits::total        16406172                       # number of ReadReq hits (Count)
system.cpu.icache.ReadReq.misses::cpu.inst         1377                       # number of ReadReq misses (Count)
system.cpu.icache.ReadReq.misses::total          1377                       # number of ReadReq misses (Count)
system.cpu.icache.ReadReq.missLatency::cpu.inst     94319000                       # number of ReadReq miss ticks (Tick)
system.cpu.icache.ReadReq.missLatency::total     94319000                       # number of ReadReq miss ticks (Tick)
system.cpu.icache.ReadReq.accesses::cpu.inst     16407549                       # number of ReadReq accesses(hits+misses) (Count)
system.cpu.icache.ReadReq.accesses::total     16407549                       # number of ReadReq accesses(hits+misses) (Count)
system.cpu.icache.ReadReq.missRate::cpu.inst     0.000084                       # miss rate for ReadReq accesses (Ratio)
system.cpu.icache.ReadReq.missRate::total     0.000084                       # miss rate for ReadReq accesses (Ratio)
system.cpu.icache.ReadReq.avgMissLatency::cpu.inst 68496.005810                       # average ReadReq miss latency ((Tick/Count))
system.cpu.icache.ReadReq.avgMissLatency::total 68496.005810                       # average ReadReq miss latency ((Tick/Count))
system.cpu.icache.ReadReq.mshrHits::cpu.inst          287                       # number of ReadReq MSHR hits (Count)
system.cpu.icache.ReadReq.mshrHits::total          287                       # number of ReadReq MSHR hits (Count)
system.cpu.icache.ReadReq.mshrMisses::cpu.inst         1090                       # number of ReadReq MSHR misses (Count)
system.cpu.icache.ReadReq.mshrMisses::total         1090                       # number of ReadReq MSHR misses (Count)
system.cpu.icache.ReadReq.mshrMissLatency::cpu.inst     74608000                       # number of ReadReq MSHR miss ticks (Tick)
system.cpu.icache.ReadReq.mshrMissLatency::total     74608000                       # number of ReadReq MSHR miss ticks (Tick)
system.cpu.icache.ReadReq.mshrMissRate::cpu.inst     0.000066                       # mshr miss rate for ReadReq accesses (Ratio)
system.cpu.icache.ReadReq.mshrMissRate::total     0.000066                       # mshr miss rate for ReadReq accesses (Ratio)
system.cpu.icache.ReadReq.avgMshrMissLatency::cpu.inst 68447.706422                       # average ReadReq mshr miss latency ((Tick/Count))
system.cpu.icache.ReadReq.avgMshrMissLatency::total 68447.706422                       # average ReadReq mshr miss latency ((Tick/Count))
system.cpu.icache.power_state.pwrStateResidencyTicks::UNDEFINED  63520694000                       # Cumulative time (in ticks) in various power states (Tick)
system.cpu.icache.tags.tagsInUse           431.107939                       # Average ticks per tags in use ((Tick/Count))
system.cpu.icache.tags.totalRefs             16407262                       # Total number of references to valid blocks. (Count)
system.cpu.icache.tags.sampledRefs               1090                       # Sample count of references to valid blocks. (Count)
system.cpu.icache.tags.avgRefs           15052.533945                       # Average number of references to valid blocks. ((Count/Count))
system.cpu.icache.tags.warmupTick              107000                       # The tick when the warmup percentage was hit. (Tick)
system.cpu.icache.tags.occupancies::cpu.inst   431.107939                       # Average occupied blocks per tick, per requestor ((Count/Tick))
system.cpu.icache.tags.avgOccs::cpu.inst     0.842008                       # Average percentage of cache occupancy ((Ratio/Tick))
system.cpu.icache.tags.avgOccs::total        0.842008                       # Average percentage of cache occupancy ((Ratio/Tick))
system.cpu.icache.tags.occupanciesTaskId::1024          432                       # Occupied blocks per task id (Count)
system.cpu.icache.tags.ageTaskId_1024::3            4                       # Occupied blocks per task id, per block age (Count)
system.cpu.icache.tags.ageTaskId_1024::4          428                       # Occupied blocks per task id, per block age (Count)
system.cpu.icache.tags.ratioOccsTaskId::1024     0.843750                       # Ratio of occupied blocks and all blocks, per task id (Ratio)
system.cpu.icache.tags.tagAccesses           32816188                       # Number of tag accesses (Count)
system.cpu.icache.tags.dataAccesses          32816188                       # Number of data accesses (Count)
system.cpu.icache.tags.power_state.pwrStateResidencyTicks::UNDEFINED  63520694000                       # Cumulative time (in ticks) in various power states (Tick)
system.cpu.iew.idleCycles                           0                       # Number of cycles IEW is idle (Cycle)
system.cpu.iew.squashCycles                   2959010                       # Number of cycles IEW is squashing (Cycle)
system.cpu.iew.blockCycles                    9207851                       # Number of cycles IEW is blocking (Cycle)
system.cpu.iew.unblockCycles                   336094                       # Number of cycles IEW is unblocking (Cycle)
system.cpu.iew.dispatchedInsts              177372675                       # Number of instructions dispatched to IQ (Count)
system.cpu.iew.dispSquashedInsts               360220                       # Number of squashed instructions skipped by dispatch (Count)
system.cpu.iew.dispLoadInsts                 20597950                       # Number of dispatched load instructions (Count)
system.cpu.iew.dispStoreInsts                13725966                       # Number of dispatched store instructions (Count)
system.cpu.iew.dispNonSpecInsts                 51297                       # Number of dispatched non-speculative instructions (Count)
system.cpu.iew.iqFullEvents                        25                       # Number of times the IQ has become full, causing a stall (Count)
system.cpu.iew.lsqFullEvents                   331033                       # Number of times the LSQ has become full, causing a stall (Count)
system.cpu.iew.memOrderViolationEvents           1209                       # Number of memory order violations (Count)
system.cpu.iew.predictedTakenIncorrect         138285                       # Number of branches that were predicted taken incorrectly (Count)
system.cpu.iew.predictedNotTakenIncorrect      3490292                       # Number of branches that were predicted not taken incorrectly (Count)
system.cpu.iew.branchMispredicts              3628577                       # Number of branch mispredicts detected at execute (Count)
system.cpu.iew.instsToCommit                147424696                       # Cumulative count of insts sent to commit (Count)
system.cpu.iew.writebackCount               145965533                       # Cumulative count of insts written-back (Count)
system.cpu.iew.producerInst                 102926301                       # Number of instructions producing a value (Count)
system.cpu.iew.consumerInst                 158727889                       # Number of instructions consuming a value (Count)
system.cpu.iew.wbRate                        2.297921                       # Insts written-back per cycle ((Count/Cycle))
system.cpu.iew.wbFanout                      0.648445                       # Average fanout of values written-back ((Count/Count))
system.cpu.interrupts.clk_domain.clock          16000                       # Clock period in ticks (Tick)
system.cpu.lsq0.forwLoads                     1504164                       # Number of loads that had data forwarded from stores (Count)
system.cpu.lsq0.squashedLoads                 9944588                       # Number of loads squashed (Count)
system.cpu.lsq0.ignoredResponses                25541                       # Number of memory responses ignored because the instruction is squashed (Count)
system.cpu.lsq0.memOrderViolation                1209                       # Number of memory ordering violations (Count)
system.cpu.lsq0.squashedStores                6762926                       # Number of stores squashed (Count)
system.cpu.lsq0.rescheduledLoads                    0                       # Number of loads that were rescheduled (Count)
system.cpu.lsq0.blockedByCache                     53                       # Number of times an access to memory failed due to the cache being blocked (Count)
system.cpu.lsq0.loadToUse::samples           10653362                       # Distribution of cycle latency between the first time a load is issued and its completion (Unspecified)
system.cpu.lsq0.loadToUse::mean              3.343539                       # Distribution of cycle latency between the first time a load is issued and its completion (Unspecified)
system.cpu.lsq0.loadToUse::stdev             3.757952                       # Distribution of cycle latency between the first time a load is issued and its completion (Unspecified)
system.cpu.lsq0.loadToUse::0-9               10632716     99.81%     99.81% # Distribution of cycle latency between the first time a load is issued and its completion (Unspecified)
system.cpu.lsq0.loadToUse::10-19                   74      0.00%     99.81% # Distribution of cycle latency between the first time a load is issued and its completion (Unspecified)
system.cpu.lsq0.loadToUse::20-29                 6480      0.06%     99.87% # Distribution of cycle latency between the first time a load is issued and its completion (Unspecified)
system.cpu.lsq0.loadToUse::30-39                   13      0.00%     99.87% # Distribution of cycle latency between the first time a load is issued and its completion (Unspecified)
system.cpu.lsq0.loadToUse::40-49                  601      0.01%     99.87% # Distribution of cycle latency between the first time a load is issued and its completion (Unspecified)
system.cpu.lsq0.loadToUse::50-59                  109      0.00%     99.87% # Distribution of cycle latency between the first time a load is issued and its completion (Unspecified)
system.cpu.lsq0.loadToUse::60-69                   87      0.00%     99.88% # Distribution of cycle latency between the first time a load is issued and its completion (Unspecified)
system.cpu.lsq0.loadToUse::70-79                   26      0.00%     99.88% # Distribution of cycle latency between the first time a load is issued and its completion (Unspecified)
system.cpu.lsq0.loadToUse::80-89                 2011      0.02%     99.89% # Distribution of cycle latency between the first time a load is issued and its completion (Unspecified)
system.cpu.lsq0.loadToUse::90-99                 8964      0.08%     99.98% # Distribution of cycle latency between the first time a load is issued and its completion (Unspecified)
system.cpu.lsq0.loadToUse::100-109                 32      0.00%     99.98% # Distribution of cycle latency between the first time a load is issued and its completion (Unspecified)
system.cpu.lsq0.loadToUse::110-119               1660      0.02%     99.99% # Distribution of cycle latency between the first time a load is issued and its completion (Unspecified)
system.cpu.lsq0.loadToUse::120-129                153      0.00%    100.00% # Distribution of cycle latency between the first time a load is issued and its completion (Unspecified)
system.cpu.lsq0.loadToUse::130-139                 16      0.00%    100.00% # Distribution of cycle latency between the first time a load is issued and its completion (Unspecified)
system.cpu.lsq0.loadToUse::140-149                 28      0.00%    100.00% # Distribution of cycle latency between the first time a load is issued and its completion (Unspecified)
system.cpu.lsq0.loadToUse::150-159                 10      0.00%    100.00% # Distribution of cycle latency between the first time a load is issued and its completion (Unspecified)
system.cpu.lsq0.loadToUse::160-169                 12      0.00%    100.00% # Distribution of cycle latency between the first time a load is issued and its completion (Unspecified)
system.cpu.lsq0.loadToUse::170-179                 20      0.00%    100.00% # Distribution of cycle latency between the first time a load is issued and its completion (Unspecified)
system.cpu.lsq0.loadToUse::180-189                 13      0.00%    100.00% # Distribution of cycle latency between the first time a load is issued and its completion (Unspecified)
system.cpu.lsq0.loadToUse::190-199                 12      0.00%    100.00% # Distribution of cycle latency between the first time a load is issued and its completion (Unspecified)
system.cpu.lsq0.loadToUse::200-209                 22      0.00%    100.00% # Distribution of cycle latency between the first time a load is issued and its completion (Unspecified)
system.cpu.lsq0.loadToUse::210-219                  8      0.00%    100.00% # Distribution of cycle latency between the first time a load is issued and its completion (Unspecified)
system.cpu.lsq0.loadToUse::220-229                 21      0.00%    100.00% # Distribution of cycle latency between the first time a load is issued and its completion (Unspecified)
[...]
system.mem_ctrl.dram.bytesWritten::total      1614720                       # Number of bytes written to this memory (Byte)
system.mem_ctrl.dram.numReads::cpu.inst           612                       # Number of read requests responded to by this memory (Count)
system.mem_ctrl.dram.numReads::cpu.data         58059                       # Number of read requests responded to by this memory (Count)
system.mem_ctrl.dram.numReads::total            58671                       # Number of read requests responded to by this memory (Count)
system.mem_ctrl.dram.numWrites::writebacks        25230                       # Number of write requests responded to by this memory (Count)
system.mem_ctrl.dram.numWrites::total           25230                       # Number of write requests responded to by this memory (Count)
system.mem_ctrl.dram.bwRead::cpu.inst          616618                       # Total read bandwidth from this memory ((Byte/Second))
system.mem_ctrl.dram.bwRead::cpu.data        58497094                       # Total read bandwidth from this memory ((Byte/Second))
system.mem_ctrl.dram.bwRead::total           59113712                       # Total read bandwidth from this memory ((Byte/Second))
system.mem_ctrl.dram.bwInstRead::cpu.inst       616618                       # Instruction read bandwidth from this memory ((Byte/Second))
system.mem_ctrl.dram.bwInstRead::total         616618                       # Instruction read bandwidth from this memory ((Byte/Second))
system.mem_ctrl.dram.bwWrite::writebacks     25420377                       # Write bandwidth from this memory ((Byte/Second))
system.mem_ctrl.dram.bwWrite::total          25420377                       # Write bandwidth from this memory ((Byte/Second))
system.mem_ctrl.dram.bwTotal::writebacks     25420377                       # Total bandwidth to/from this memory ((Byte/Second))
system.mem_ctrl.dram.bwTotal::cpu.inst         616618                       # Total bandwidth to/from this memory ((Byte/Second))
system.mem_ctrl.dram.bwTotal::cpu.data       58497094                       # Total bandwidth to/from this memory ((Byte/Second))
system.mem_ctrl.dram.bwTotal::total          84534089                       # Total bandwidth to/from this memory ((Byte/Second))
system.mem_ctrl.dram.readBursts                 58669                       # Number of DRAM read bursts (Count)
system.mem_ctrl.dram.writeBursts                25207                       # Number of DRAM write bursts (Count)
system.mem_ctrl.dram.perBankRdBursts::0          3689                       # Per bank write bursts (Count)
system.mem_ctrl.dram.perBankRdBursts::1          3679                       # Per bank write bursts (Count)
system.mem_ctrl.dram.perBankRdBursts::2          3736                       # Per bank write bursts (Count)
system.mem_ctrl.dram.perBankRdBursts::3          3651                       # Per bank write bursts (Count)
system.mem_ctrl.dram.perBankRdBursts::4          3672                       # Per bank write bursts (Count)
system.mem_ctrl.dram.perBankRdBursts::5          3705                       # Per bank write bursts (Count)
system.mem_ctrl.dram.perBankRdBursts::6          3724                       # Per bank write bursts (Count)
system.mem_ctrl.dram.perBankRdBursts::7          3568                       # Per bank write bursts (Count)
system.mem_ctrl.dram.perBankRdBursts::8          3625                       # Per bank write bursts (Count)
system.mem_ctrl.dram.perBankRdBursts::9          3535                       # Per bank write bursts (Count)
system.mem_ctrl.dram.perBankRdBursts::10         3718                       # Per bank write bursts (Count)
system.mem_ctrl.dram.perBankRdBursts::11         3658                       # Per bank write bursts (Count)
system.mem_ctrl.dram.perBankRdBursts::12         3665                       # Per bank write bursts (Count)
system.mem_ctrl.dram.perBankRdBursts::13         3728                       # Per bank write bursts (Count)
system.mem_ctrl.dram.perBankRdBursts::14         3650                       # Per bank write bursts (Count)
system.mem_ctrl.dram.perBankRdBursts::15         3666                       # Per bank write bursts (Count)
system.mem_ctrl.dram.perBankWrBursts::0          1582                       # Per bank write bursts (Count)
system.mem_ctrl.dram.perBankWrBursts::1          1606                       # Per bank write bursts (Count)
system.mem_ctrl.dram.perBankWrBursts::2          1652                       # Per bank write bursts (Count)
system.mem_ctrl.dram.perBankWrBursts::3          1593                       # Per bank write bursts (Count)
system.mem_ctrl.dram.perBankWrBursts::4          1613                       # Per bank write bursts (Count)
system.mem_ctrl.dram.perBankWrBursts::5          1599                       # Per bank write bursts (Count)
system.mem_ctrl.dram.perBankWrBursts::6          1616                       # Per bank write bursts (Count)
system.mem_ctrl.dram.perBankWrBursts::7          1460                       # Per bank write bursts (Count)
system.mem_ctrl.dram.perBankWrBursts::8          1511                       # Per bank write bursts (Count)
system.mem_ctrl.dram.perBankWrBursts::9          1460                       # Per bank write bursts (Count)
system.mem_ctrl.dram.perBankWrBursts::10         1597                       # Per bank write bursts (Count)
system.mem_ctrl.dram.perBankWrBursts::11         1546                       # Per bank write bursts (Count)
system.mem_ctrl.dram.perBankWrBursts::12         1585                       # Per bank write bursts (Count)
system.mem_ctrl.dram.perBankWrBursts::13         1609                       # Per bank write bursts (Count)
system.mem_ctrl.dram.perBankWrBursts::14         1582                       # Per bank write bursts (Count)
system.mem_ctrl.dram.perBankWrBursts::15         1596                       # Per bank write bursts (Count)
system.mem_ctrl.dram.totQLat               1084499500                       # Total ticks spent queuing (Tick)
system.mem_ctrl.dram.totBusLat              293345000                       # Total ticks spent in databus transfers (Tick)
system.mem_ctrl.dram.totMemAccLat          2184543250                       # Total ticks spent from burst creation until serviced by the DRAM (Tick)
system.mem_ctrl.dram.avgQLat                 18485.05                       # Average queueing delay per DRAM burst ((Tick/Count))
system.mem_ctrl.dram.avgBusLat                5000.00                       # Average bus latency per DRAM burst ((Tick/Count))
system.mem_ctrl.dram.avgMemAccLat            37235.05                       # Average memory access latency per DRAM burst ((Tick/Count))
system.mem_ctrl.dram.readRowHits                45532                       # Number of row buffer hits during reads (Count)
system.mem_ctrl.dram.writeRowHits               21312                       # Number of row buffer hits during writes (Count)
system.mem_ctrl.dram.readRowHitRate             77.61                       # Row buffer hit rate for reads (Ratio)
system.mem_ctrl.dram.writeRowHitRate            84.55                       # Row buffer hit rate for writes (Ratio)
system.mem_ctrl.dram.bytesPerActivate::samples        17031                       # Bytes accessed per row activation (Byte)
system.mem_ctrl.dram.bytesPerActivate::mean   315.189948                       # Bytes accessed per row activation (Byte)
system.mem_ctrl.dram.bytesPerActivate::gmean   215.824624                       # Bytes accessed per row activation (Byte)
system.mem_ctrl.dram.bytesPerActivate::stdev   288.507435                       # Bytes accessed per row activation (Byte)
system.mem_ctrl.dram.bytesPerActivate::0-127         3454     20.28%     20.28% # Bytes accessed per row activation (Byte)
system.mem_ctrl.dram.bytesPerActivate::128-255         7745     45.48%     65.76% # Bytes accessed per row activation (Byte)
system.mem_ctrl.dram.bytesPerActivate::256-383         1110      6.52%     72.27% # Bytes accessed per row activation (Byte)
system.mem_ctrl.dram.bytesPerActivate::384-511          803      4.71%     76.99% # Bytes accessed per row activation (Byte)
system.mem_ctrl.dram.bytesPerActivate::512-639          847      4.97%     81.96% # Bytes accessed per row activation (Byte)
system.mem_ctrl.dram.bytesPerActivate::640-767          700      4.11%     86.07% # Bytes accessed per row activation (Byte)
system.mem_ctrl.dram.bytesPerActivate::768-895          848      4.98%     91.05% # Bytes accessed per row activation (Byte)
system.mem_ctrl.dram.bytesPerActivate::896-1023          453      2.66%     93.71% # Bytes accessed per row activation (Byte)
system.mem_ctrl.dram.bytesPerActivate::1024-1151         1071      6.29%    100.00% # Bytes accessed per row activation (Byte)
system.mem_ctrl.dram.bytesPerActivate::total        17031                       # Bytes accessed per row activation (Byte)
system.mem_ctrl.dram.bytesRead                3754816                       # Total bytes read (Byte)
system.mem_ctrl.dram.bytesWritten             1613248                       # Total bytes written (Byte)
system.mem_ctrl.dram.avgRdBW                59.111697                       # Average DRAM read bandwidth in MiBytes/s ((Byte/Second))
system.mem_ctrl.dram.avgWrBW                25.397204                       # Average DRAM write bandwidth in MiBytes/s ((Byte/Second))
system.mem_ctrl.dram.peakBW                  12800.00                       # Theoretical peak bandwidth in MiByte/s ((Byte/Second))
system.mem_ctrl.dram.busUtil                     0.66                       # Data bus utilization in percentage (Ratio)
system.mem_ctrl.dram.busUtilRead                 0.46                       # Data bus utilization in percentage for reads (Ratio)
system.mem_ctrl.dram.busUtilWrite                0.20                       # Data bus utilization in percentage for writes (Ratio)
system.mem_ctrl.dram.pageHitRate                79.69                       # Row buffer hit rate, read and write combined (Ratio)
system.mem_ctrl.dram.power_state.pwrStateResidencyTicks::UNDEFINED  63520694000                       # Cumulative time (in ticks) in various power states (Tick)
system.mem_ctrl.dram.rank0.actEnergy         61068420                       # Energy for activate commands per rank (pJ) (Joule)
system.mem_ctrl.dram.rank0.preEnergy         32454840                       # Energy for precharge commands per rank (pJ) (Joule)
system.mem_ctrl.dram.rank0.readEnergy       210087360                       # Energy for read commands per rank (pJ) (Joule)
system.mem_ctrl.dram.rank0.writeEnergy       66403620                       # Energy for write commands per rank (pJ) (Joule)
system.mem_ctrl.dram.rank0.refreshEnergy 5014233120.000001                       # Energy for refresh commands per rank (pJ) (Joule)
system.mem_ctrl.dram.rank0.actBackEnergy  15286965660                       # Energy for active background per rank (pJ) (Joule)
system.mem_ctrl.dram.rank0.preBackEnergy  11518712640                       # Energy for precharge background per rank (pJ) (Joule)
system.mem_ctrl.dram.rank0.actPowerDownEnergy            0                       # Energy for active power-down per rank (pJ) (Joule)
system.mem_ctrl.dram.rank0.prePowerDownEnergy            0                       # Energy for precharge power-down per rank (pJ) (Joule)
system.mem_ctrl.dram.rank0.selfRefreshEnergy            0                       # Energy for self refresh per rank (pJ) (Joule)
system.mem_ctrl.dram.rank0.totalEnergy    32189925660                       # Total energy per rank (pJ) (Joule)
system.mem_ctrl.dram.rank0.averagePower    506.762814                       # Core power per rank (mW) (Watt)
system.mem_ctrl.dram.rank0.totalIdleTime            0                       # Total Idle time Per DRAM Rank (Tick)
system.mem_ctrl.dram.rank0.pwrStateTime::IDLE  29803901000                       # Time in different power states (Tick)
system.mem_ctrl.dram.rank0.pwrStateTime::REF   2121080000                       # Time in different power states (Tick)
system.mem_ctrl.dram.rank0.pwrStateTime::SREF            0                       # Time in different power states (Tick)
system.mem_ctrl.dram.rank0.pwrStateTime::PRE_PDN            0                       # Time in different power states (Tick)
system.mem_ctrl.dram.rank0.pwrStateTime::ACT  31595713000                       # Time in different power states (Tick)
system.mem_ctrl.dram.rank0.pwrStateTime::ACT_PDN            0                       # Time in different power states (Tick)
system.mem_ctrl.dram.rank1.actEnergy         60540060                       # Energy for activate commands per rank (pJ) (Joule)
system.mem_ctrl.dram.rank1.preEnergy         32177805                       # Energy for precharge commands per rank (pJ) (Joule)
system.mem_ctrl.dram.rank1.readEnergy       208809300                       # Energy for read commands per rank (pJ) (Joule)
system.mem_ctrl.dram.rank1.writeEnergy       65176920                       # Energy for write commands per rank (pJ) (Joule)
system.mem_ctrl.dram.rank1.refreshEnergy 5014233120.000001                       # Energy for refresh commands per rank (pJ) (Joule)
system.mem_ctrl.dram.rank1.actBackEnergy  14503288050                       # Energy for active background per rank (pJ) (Joule)
system.mem_ctrl.dram.rank1.preBackEnergy  12178651680                       # Energy for precharge background per rank (pJ) (Joule)
system.mem_ctrl.dram.rank1.actPowerDownEnergy            0                       # Energy for active power-down per rank (pJ) (Joule)
system.mem_ctrl.dram.rank1.prePowerDownEnergy            0                       # Energy for precharge power-down per rank (pJ) (Joule)
system.mem_ctrl.dram.rank1.selfRefreshEnergy            0                       # Energy for self refresh per rank (pJ) (Joule)
system.mem_ctrl.dram.rank1.totalEnergy    32062876935                       # Total energy per rank (pJ) (Joule)
system.mem_ctrl.dram.rank1.averagePower    504.762699                       # Core power per rank (mW) (Watt)
system.mem_ctrl.dram.rank1.totalIdleTime            0                       # Total Idle time Per DRAM Rank (Tick)
system.mem_ctrl.dram.rank1.pwrStateTime::IDLE  31527282250                       # Time in different power states (Tick)
system.mem_ctrl.dram.rank1.pwrStateTime::REF   2121080000                       # Time in different power states (Tick)
system.mem_ctrl.dram.rank1.pwrStateTime::SREF            0                       # Time in different power states (Tick)
system.mem_ctrl.dram.rank1.pwrStateTime::PRE_PDN            0                       # Time in different power states (Tick)
system.mem_ctrl.dram.rank1.pwrStateTime::ACT  29872331750                       # Time in different power states (Tick)
system.mem_ctrl.dram.rank1.pwrStateTime::ACT_PDN            0                       # Time in different power states (Tick)
system.mem_ctrl.power_state.pwrStateResidencyTicks::UNDEFINED  63520694000                       # Cumulative time (in ticks) in various power states (Tick)
system.membus.transDist::ReadResp               11446                       # Transaction distribution (Count)
system.membus.transDist::WritebackDirty         25230                       # Transaction distribution (Count)
system.membus.transDist::CleanEvict               223                       # Transaction distribution (Count)
system.membus.transDist::ReadExReq              47225                       # Transaction distribution (Count)
system.membus.transDist::ReadExResp             47225                       # Transaction distribution (Count)
system.membus.transDist::ReadSharedReq          11446                       # Transaction distribution (Count)
system.membus.pktCount_system.l2cache.mem_side_port::system.mem_ctrl.port       142795                       # Packet count per connected requestor and responder (Count)
system.membus.pktCount_system.l2cache.mem_side_port::total       142795                       # Packet count per connected requestor and responder (Count)
system.membus.pktCount::total                  142795                       # Packet count per connected requestor and responder (Count)
system.membus.pktSize_system.l2cache.mem_side_port::system.mem_ctrl.port      5369664                       # Cumulative packet size per connected requestor and responder (Byte)
system.membus.pktSize_system.l2cache.mem_side_port::total      5369664                       # Cumulative packet size per connected requestor and responder (Byte)
system.membus.pktSize::total                  5369664                       # Cumulative packet size per connected requestor and responder (Byte)
system.membus.snoops                                0                       # Total snoops (Count)
system.membus.snoopTraffic                          0                       # Total snoop traffic (Byte)
system.membus.snoopFanout::samples              58671                       # Request fanout histogram (Count)
system.membus.snoopFanout::mean                     0                       # Request fanout histogram (Count)
system.membus.snoopFanout::stdev                    0                       # Request fanout histogram (Count)
system.membus.snoopFanout::underflows               0      0.00%      0.00% # Request fanout histogram (Count)
system.membus.snoopFanout::0                    58671    100.00%    100.00% # Request fanout histogram (Count)
system.membus.snoopFanout::1                        0      0.00%    100.00% # Request fanout histogram (Count)
system.membus.snoopFanout::overflows                0      0.00%    100.00% # Request fanout histogram (Count)
system.membus.snoopFanout::min_value                0                       # Request fanout histogram (Count)
system.membus.snoopFanout::max_value                0                       # Request fanout histogram (Count)
system.membus.snoopFanout::total                58671                       # Request fanout histogram (Count)
system.membus.power_state.pwrStateResidencyTicks::UNDEFINED  63520694000                       # Cumulative time (in ticks) in various power states (Tick)
system.membus.reqLayer2.occupancy           185044000                       # Layer occupancy (ticks) (Tick)
system.membus.reqLayer2.utilization               0.0                       # Layer utilization (Ratio)
system.membus.respLayer0.occupancy          310579000                       # Layer occupancy (ticks) (Tick)
system.membus.respLayer0.utilization              0.0                       # Layer utilization (Ratio)
system.membus.snoop_filter.totRequests          84124                       # Total number of requests made to the snoop filter. (Count)
system.membus.snoop_filter.hitSingleRequests        25453                       # Number of requests hitting in the snoop filter with a single holder of the requested data. (Count)
system.membus.snoop_filter.hitMultiRequests            0                       # Number of requests hitting in the snoop filter with multiple (>1) holders of the requested data. (Count)
system.membus.snoop_filter.totSnoops                0                       # Total number of snoops made to the snoop filter. (Count)
system.membus.snoop_filter.hitSingleSnoops            0                       # Number of snoops hitting in the snoop filter with a single holder of the requested data. (Count)
system.membus.snoop_filter.hitMultiSnoops            0                       # Number of snoops hitting in the snoop filter with multiple (>1) holders of the requested data. (Count)
system.workload.inst.arm                            0                       # number of arm instructions executed (Count)
system.workload.inst.quiesce                        0                       # number of quiesce instructions executed (Count)

---------- End Simulation Statistics   ----------
