
---------- Begin Simulation Statistics ----------
simSeconds                                   0.038922                       # Number of seconds simulated (Second)
simTicks                                  38922066000                       # Number of ticks simulated (Tick)
finalTick                                 38922066000                       # Number of ticks from beginning of simulation (restored from checkpoints and never reset) (Tick)
simFreq                                  1000000000000                       # The number of ticks per simulated second ((Tick/Second))
hostSeconds                                    314.65                       # Real time elapsed on the host (Second)
hostTickRate                                123697802                       # The number of ticks simulated per host second (ticks/s) ((Tick/Second))
hostMemory                                    8522484                       # Number of bytes of host memory used (Byte)
simInsts                                     50000000                       # Number of instructions simulated (Count)
simOps                                       58297584                       # Number of ops (including micro ops) simulated (Count)
hostInstRate                                   158904                       # Simulator instruction rate (inst/s) ((Count/Second))
hostOpRate                                     185275                       # Simulator op (including micro ops) rate (op/s) ((Count/Second))
system.clk_domain.clock                          1000                       # Clock period in ticks (Tick)
system.clk_domain.voltage_domain.voltage            1                       # Voltage in Volts (Volt)
system.cpu.numCycles                         38922079                       # Number of cpu cycles simulated (Cycle)
system.cpu.numWorkItemsStarted                      0                       # Number of work items this cpu started (Count)
system.cpu.numWorkItemsCompleted                    0                       # Number of work items this cpu completed (Count)
system.cpu.instsAdded                        59887641                       # Number of instructions added to the IQ (excludes non-spec) (Count)
system.cpu.nonSpecInstsAdded                      163                       # Number of non-speculative instructions added to the IQ (Count)
system.cpu.instsIssued                       59866100                       # Number of instructions issued (Count)
system.cpu.squashedInstsIssued                    632                       # Number of squashed instructions issued (Count)
system.cpu.squashedInstsExamined              1590105                       # Number of squashed instructions iterated over during squash; mainly for profiling (Count)
system.cpu.squashedOperandsExamined            789748                       # Number of squashed operands that are examined and possibly removed from graph (Count)
system.cpu.squashedNonSpecRemoved                 139                       # Number of squashed non-spec instructions that were removed (Count)
system.cpu.numIssuedDist::samples            38907178                       # Number of insts issued each cycle (Count)
system.cpu.numIssuedDist::mean               1.538690                       # Number of insts issued each cycle (Count)
system.cpu.numIssuedDist::stdev              1.552239                       # Number of insts issued each cycle (Count)
system.cpu.numIssuedDist::underflows                0      0.00%      0.00% # Number of insts issued each cycle (Count)
system.cpu.numIssuedDist::0                  13287391     34.15%     34.15% # Number of insts issued each cycle (Count)
system.cpu.numIssuedDist::1                   8430256     21.67%     55.82% # Number of insts issued each cycle (Count)
system.cpu.numIssuedDist::2                   7877046     20.25%     76.06% # Number of insts issued each cycle (Count)
system.cpu.numIssuedDist::3                   4379785     11.26%     87.32% # Number of insts issued each cycle (Count)
system.cpu.numIssuedDist::4                   3060972      7.87%     95.19% # Number of insts issued each cycle (Count)
system.cpu.numIssuedDist::5                   1129989      2.90%     98.09% # Number of insts issued each cycle (Count)
system.cpu.numIssuedDist::6                    543645      1.40%     99.49% # Number of insts issued each cycle (Count)
system.cpu.numIssuedDist::7                    198058      0.51%    100.00% # Number of insts issued each cycle (Count)
system.cpu.numIssuedDist::8                        36      0.00%    100.00% # Number of insts issued each cycle (Count)
system.cpu.numIssuedDist::overflows                 0      0.00%    100.00% # Number of insts issued each cycle (Count)
system.cpu.numIssuedDist::min_value                 0                       # Number of insts issued each cycle (Count)
system.cpu.numIssuedDist::max_value                 8                       # Number of insts issued each cycle (Count)
system.cpu.numIssuedDist::total              38907178                       # Number of insts issued each cycle (Count)
system.cpu.statFuBusy::No_OpClass                   0      0.00%      0.00% # attempts to use FU when none available (Count)
system.cpu.statFuBusy::IntAlu                 1368831     47.39%     47.39% # attempts to use FU when none available (Count)
system.cpu.statFuBusy::IntMult                      0      0.00%     47.39% # attempts to use FU when none available (Count)
system.cpu.statFuBusy::IntDiv                       0      0.00%     47.39% # attempts to use FU when none available (Count)
system.cpu.statFuBusy::FloatAdd                     0      0.00%     47.39% # attempts to use FU when none available (Count)
system.cpu.statFuBusy::FloatCmp                     0      0.00%     47.39% # attempts to use FU when none available (Count)
system.cpu.statFuBusy::FloatCvt                     0      0.00%     47.39% # attempts to use FU when none available (Count)
system.cpu.statFuBusy::FloatMult                    0      0.00%     47.39% # attempts to use FU when none available (Count)
system.cpu.statFuBusy::FloatMultAcc                 0      0.00%     47.39% # attempts to use FU when none available (Count)
system.cpu.statFuBusy::FloatDiv                     0      0.00%     47.39% # attempts to use FU when none available (Count)
system.cpu.statFuBusy::FloatMisc                    0      0.00%     47.39% # attempts to use FU when none available (Count)
system.cpu.statFuBusy::FloatSqrt                    0      0.00%     47.39% # attempts to use FU when none available (Count)
system.cpu.statFuBusy::SimdAdd                      0      0.00%     47.39% # attempts to use FU when none available (Count)
system.cpu.statFuBusy::SimdAddAcc                   0      0.00%     47.39% # attempts to use FU when none available (Count)
system.cpu.statFuBusy::SimdAlu                     26      0.00%     47.39% # attempts to use FU when none available (Count)
system.cpu.statFuBusy::SimdCmp                      0      0.00%     47.39% # attempts to use FU when none available (Count)
system.cpu.statFuBusy::SimdCvt                      2      0.00%     47.39% # attempts to use FU when none available (Count)
system.cpu.statFuBusy::SimdMisc                     0      0.00%     47.39% # attempts to use FU when none available (Count)
system.cpu.statFuBusy::SimdMult                     0      0.00%     47.39% # attempts to use FU when none available (Count)
system.cpu.statFuBusy::SimdMultAcc                  0      0.00%     47.39% # attempts to use FU when none available (Count)
system.cpu.statFuBusy::SimdShift                    0      0.00%     47.39% # attempts to use FU when none available (Count)
system.cpu.statFuBusy::SimdShiftAcc                 0      0.00%     47.39% # attempts to use FU when none available (Count)
system.cpu.statFuBusy::SimdDiv                      0      0.00%     47.39% # attempts to use FU when none available (Count)
system.cpu.statFuBusy::SimdSqrt                     0      0.00%     47.39% # attempts to use FU when none available (Count)
system.cpu.statFuBusy::SimdFloatAdd                 0      0.00%     47.39% # attempts to use FU when none available (Count)
system.cpu.statFuBusy::SimdFloatAlu                 0      0.00%     47.39% # attempts to use FU when none available (Count)
system.cpu.statFuBusy::SimdFloatCmp                 0      0.00%     47.39% # attempts to use FU when none available (Count)
system.cpu.statFuBusy::SimdFloatCvt                 0      0.00%     47.39% # attempts to use FU when none available (Count)
system.cpu.statFuBusy::SimdFloatDiv                 0      0.00%     47.39% # attempts to use FU when none available (Count)
system.cpu.statFuBusy::SimdFloatMisc                0      0.00%     47.39% # attempts to use FU when none available (Count)
system.cpu.statFuBusy::SimdFloatMult                0      0.00%     47.39% # attempts to use FU when none available (Count)
system.cpu.statFuBusy::SimdFloatMultAcc             0      0.00%     47.39% # attempts to use FU when none available (Count)
system.cpu.statFuBusy::SimdFloatSqrt                0      0.00%     47.39% # attempts to use FU when none available (Count)
system.cpu.statFuBusy::SimdReduceAdd                0      0.00%     47.39% # attempts to use FU when none available (Count)
system.cpu.statFuBusy::SimdReduceAlu                0      0.00%     47.39% # attempts to use FU when none available (Count)
system.cpu.statFuBusy::SimdReduceCmp                0      0.00%     47.39% # attempts to use FU when none available (Count)
system.cpu.statFuBusy::SimdFloatReduceAdd            0      0.00%     47.39% # attempts to use FU when none available (Count)
system.cpu.statFuBusy::SimdFloatReduceCmp            0      0.00%     47.39% # attempts to use FU when none available (Count)
system.cpu.statFuBusy::SimdAes                      0      0.00%     47.39% # attempts to use FU when none available (Count)
system.cpu.statFuBusy::SimdAesMix                   0      0.00%     47.39% # attempts to use FU when none available (Count)
system.cpu.statFuBusy::SimdSha1Hash                 0      0.00%     47.39% # attempts to use FU when none available (Count)
system.cpu.statFuBusy::SimdSha1Hash2                0      0.00%     47.39% # attempts to use FU when none available (Count)
system.cpu.statFuBusy::SimdSha256Hash               0      0.00%     47.39% # attempts to use FU when none available (Count)
system.cpu.statFuBusy::SimdSha256Hash2              0      0.00%     47.39% # attempts to use FU when none available (Count)
system.cpu.statFuBusy::SimdShaSigma2                0      0.00%     47.39% # attempts to use FU when none available (Count)
system.cpu.statFuBusy::SimdShaSigma3                0      0.00%     47.39% # attempts to use FU when none available (Count)
system.cpu.statFuBusy::SimdPredAlu                  0      0.00%     47.39% # attempts to use FU when none available (Count)
system.cpu.statFuBusy::MemRead                1519226     52.60%     99.99% # attempts to use FU when none available (Count)
system.cpu.statFuBusy::MemWrite                   262      0.01%    100.00% # attempts to use FU when none available (Count)
system.cpu.statFuBusy::FloatMemRead                11      0.00%    100.00% # attempts to use FU when none available (Count)
system.cpu.statFuBusy::FloatMemWrite               91      0.00%    100.00% # attempts to use FU when none available (Count)
system.cpu.statFuBusy::IprAccess                    0      0.00%    100.00% # attempts to use FU when none available (Count)
system.cpu.statFuBusy::InstPrefetch                 0      0.00%    100.00% # attempts to use FU when none available (Count)
system.cpu.statIssuedInstType_0::No_OpClass          272      0.00%      0.00% # Number of instructions issued per FU type, per thread (Count)
system.cpu.statIssuedInstType_0::IntAlu      39380538     65.78%     65.78% # Number of instructions issued per FU type, per thread (Count)
system.cpu.statIssuedInstType_0::IntMult           29      0.00%     65.78% # Number of instructions issued per FU type, per thread (Count)
system.cpu.statIssuedInstType_0::IntDiv            78      0.00%     65.78% # Number of instructions issued per FU type, per thread (Count)
system.cpu.statIssuedInstType_0::FloatAdd           29      0.00%     65.78% # Number of instructions issued per FU type, per thread (Count)
system.cpu.statIssuedInstType_0::FloatCmp            0      0.00%     65.78% # Number of instructions issued per FU type, per thread (Count)
system.cpu.statIssuedInstType_0::FloatCvt            0      0.00%     65.78% # Number of instructions issued per FU type, per thread (Count)
system.cpu.statIssuedInstType_0::FloatMult            0      0.00%     65.78% # Number of instructions issued per FU type, per thread (Count)
system.cpu.statIssuedInstType_0::FloatMultAcc            0      0.00%     65.78% # Number of instructions issued per FU type, per thread (Count)
system.cpu.statIssuedInstType_0::FloatDiv            0      0.00%     65.78% # Number of instructions issued per FU type, per thread (Count)
system.cpu.statIssuedInstType_0::FloatMisc            0      0.00%     65.78% # Number of instructions issued per FU type, per thread (Count)
system.cpu.statIssuedInstType_0::FloatSqrt            0      0.00%     65.78% # Number of instructions issued per FU type, per thread (Count)
system.cpu.statIssuedInstType_0::SimdAdd            0      0.00%     65.78% # Number of instructions issued per FU type, per thread (Count)
system.cpu.statIssuedInstType_0::SimdAddAcc            0      0.00%     65.78% # Number of instructions issued per FU type, per thread (Count)
system.cpu.statIssuedInstType_0::SimdAlu          193      0.00%     65.78% # Number of instructions issued per FU type, per thread (Count)
system.cpu.statIssuedInstType_0::SimdCmp            0      0.00%     65.78% # Number of instructions issued per FU type, per thread (Count)
system.cpu.statIssuedInstType_0::SimdCvt          170      0.00%     65.78% # Number of instructions issued per FU type, per thread (Count)
system.cpu.statIssuedInstType_0::SimdMisc          237      0.00%     65.78% # Number of instructions issued per FU type, per thread (Count)
system.cpu.statIssuedInstType_0::SimdMult            0      0.00%     65.78% # Number of instructions issued per FU type, per thread (Count)
system.cpu.statIssuedInstType_0::SimdMultAcc            0      0.00%     65.78% # Number of instructions issued per FU type, per thread (Count)
system.cpu.statIssuedInstType_0::SimdShift            0      0.00%     65.78% # Number of instructions issued per FU type, per thread (Count)
system.cpu.statIssuedInstType_0::SimdShiftAcc            0      0.00%     65.78% # Number of instructions issued per FU type, per thread (Count)
system.cpu.statIssuedInstType_0::SimdDiv            0      0.00%     65.78% # Number of instructions issued per FU type, per thread (Count)
system.cpu.statIssuedInstType_0::SimdSqrt            0      0.00%     65.78% # Number of instructions issued per FU type, per thread (Count)
system.cpu.statIssuedInstType_0::SimdFloatAdd            0      0.00%     65.78% # Number of instructions issued per FU type, per thread (Count)
system.cpu.statIssuedInstType_0::SimdFloatAlu            0      0.00%     65.78% # Number of instructions issued per FU type, per thread (Count)
system.cpu.statIssuedInstType_0::SimdFloatCmp            0      0.00%     65.78% # Number of instructions issued per FU type, per thread (Count)
system.cpu.statIssuedInstType_0::SimdFloatCvt            2      0.00%     65.78% # Number of instructions issued per FU type, per thread (Count)
system.cpu.statIssuedInstType_0::SimdFloatDiv            0      0.00%     65.78% # Number of instructions issued per FU type, per thread (Count)
system.cpu.statIssuedInstType_0::SimdFloatMisc            0      0.00%     65.78% # Number of instructions issued per FU type, per thread (Count)
system.cpu.statIssuedInstType_0::SimdFloatMult            0      0.00%     65.78% # Number of instructions issued per FU type, per thread (Count)
system.cpu.statIssuedInstType_0::SimdFloatMultAcc            0      0.00%     65.78% # Number of instructions issued per FU type, per thread (Count)
system.cpu.statIssuedInstType_0::SimdFloatSqrt            0      0.00%     65.78% # Number of instructions issued per FU type, per thread (Count)
system.cpu.statIssuedInstType_0::SimdReduceAdd            0      0.00%     65.78% # Number of instructions issued per FU type, per thread (Count)
system.cpu.statIssuedInstType_0::SimdReduceAlu            0      0.00%     65.78% # Number of instructions issued per FU type, per thread (Count)
system.cpu.statIssuedInstType_0::SimdReduceCmp            0      0.00%     65.78% # Number of instructions issued per FU type, per thread (Count)
system.cpu.statIssuedInstType_0::SimdFloatReduceAdd            0      0.00%     65.78% # Number of instructions issued per FU type, per thread (Count)
system.cpu.statIssuedInstType_0::SimdFloatReduceCmp            0      0.00%     65.78% # Number of instructions issued per FU type, per thread (Count)
system.cpu.statIssuedInstType_0::SimdAes            0      0.00%     65.78% # Number of instructions issued per FU type, per thread (Count)
system.cpu.statIssuedInstType_0::SimdAesMix            0      0.00%     65.78% # Number of instructions issued per FU type, per thread (Count)
system.cpu.statIssuedInstType_0::SimdSha1Hash            0      0.00%     65.78% # Number of instructions issued per FU type, per thread (Count)
system.cpu.statIssuedInstType_0::SimdSha1Hash2            0      0.00%     65.78% # Number of instructions issued per FU type, per thread (Count)
system.cpu.statIssuedInstType_0::SimdSha256Hash            0      0.00%     65.78% # Number of instructions issued per FU type, per thread (Count)
system.cpu.statIssuedInstType_0::SimdSha256Hash2            0      0.00%     65.78% # Number of instructions issued per FU type, per thread (Count)
system.cpu.statIssuedInstType_0::SimdShaSigma2            0      0.00%     65.78% # Number of instructions issued per FU type, per thread (Count)
system.cpu.statIssuedInstType_0::SimdShaSigma3            0      0.00%     65.78% # Number of instructions issued per FU type, per thread (Count)
system.cpu.statIssuedInstType_0::SimdPredAlu            0      0.00%     65.78% # Number of instructions issued per FU type, per thread (Count)
system.cpu.statIssuedInstType_0::MemRead     13544790     22.63%     88.41% # Number of instructions issued per FU type, per thread (Count)
system.cpu.statIssuedInstType_0::MemWrite      6939446     11.59%    100.00% # Number of instructions issued per FU type, per thread (Count)
system.cpu.statIssuedInstType_0::FloatMemRead          122      0.00%    100.00% # Number of instructions issued per FU type, per thread (Count)
system.cpu.statIssuedInstType_0::FloatMemWrite          194      0.00%    100.00% # Number of instructions issued per FU type, per thread (Count)
system.cpu.statIssuedInstType_0::IprAccess            0      0.00%    100.00% # Number of instructions issued per FU type, per thread (Count)
system.cpu.statIssuedInstType_0::InstPrefetch            0      0.00%    100.00% # Number of instructions issued per FU type, per thread (Count)
system.cpu.statIssuedInstType_0::total       59866100                       # Number of instructions issued per FU type, per thread (Count)
system.cpu.issueRate                         1.538101                       # Inst issue rate ((Count/Cycle))
system.cpu.fuBusy                             2888449                       # FU busy when requested (Count)
system.cpu.fuBusyRate                        0.048248                       # FU busy rate (busy events/executed inst) ((Count/Count))
system.cpu.intInstQueueReads                161526276                       # Number of integer instruction queue reads (Count)
system.cpu.intInstQueueWrites                61476843                       # Number of integer instruction queue writes (Count)
system.cpu.intInstQueueWakeupAccesses        59690366                       # Number of integer instruction queue wakeup accesses (Count)
system.cpu.fpInstQueueReads                      2180                       # Number of floating instruction queue reads (Count)
system.cpu.fpInstQueueWrites                     1553                       # Number of floating instruction queue writes (Count)
system.cpu.fpInstQueueWakeupAccesses              993                       # Number of floating instruction queue wakeup accesses (Count)
system.cpu.vecInstQueueReads                        0                       # Number of vector instruction queue reads (Count)
system.cpu.vecInstQueueWrites                       0                       # Number of vector instruction queue writes (Count)
system.cpu.vecInstQueueWakeupAccesses               0                       # Number of vector instruction queue wakeup accesses (Count)
system.cpu.intAluAccesses                    62753127                       # Number of integer alu accesses (Count)
system.cpu.fpAluAccesses                         1150                       # Number of floating point alu accesses (Count)
system.cpu.vecAluAccesses                           0                       # Number of vector alu accesses (Count)
system.cpu.numInsts                          59862572                       # Number of executed instructions (Count)
system.cpu.numLoadInsts                      13543448                       # Number of load instructions executed (Count)
system.cpu.numSquashedInsts                      3525                       # Number of squashed instructions skipped in execute (Count)
system.cpu.numSwp                                   0                       # Number of swp insts executed (Count)
system.cpu.numNop                                   0                       # Number of nop insts executed (Count)
system.cpu.numRefs                           20482542                       # Number of memory reference insts executed (Count)
system.cpu.numBranches                         319578                       # Number of branches executed (Count)
system.cpu.numStoreInsts                      6939094                       # Number of stores executed (Count)
system.cpu.numRate                           1.538011                       # Inst execution rate ((Count/Cycle))
system.cpu.timesIdled                             331                       # Number of times that the entire CPU went into an idle state and unscheduled itself (Count)
system.cpu.idleCycles                           14901                       # Total number of cycles that the CPU has spent unscheduled due to idling (Cycle)
system.cpu.committedInsts                    50000000                       # Number of Instructions Simulated (Count)
system.cpu.committedOps                      58297584                       # Number of Ops (including micro ops) Simulated (Count)
system.cpu.cpi                               0.778442                       # CPI: Cycles Per Instruction ((Cycle/Count))
system.cpu.totalCpi                          0.778442                       # CPI: Total CPI of All Threads ((Cycle/Count))
system.cpu.ipc                               1.284618                       # IPC: Instructions Per Cycle ((Count/Cycle))
system.cpu.totalIpc                          1.284618                       # IPC: Total IPC of All Threads ((Count/Cycle))
system.cpu.intRegfileReads                   72776362                       # Number of integer regfile reads (Count)
system.cpu.intRegfileWrites                  52281651                       # Number of integer regfile writes (Count)
system.cpu.fpRegfileReads                        1601                       # Number of floating regfile reads (Count)
system.cpu.fpRegfileWrites                        697                       # Number of floating regfile writes (Count)
system.cpu.ccRegfileReads                     1596389                       # number of cc regfile reads (Count)
system.cpu.ccRegfileWrites                   25820229                       # number of cc regfile writes (Count)
system.cpu.miscRegfileReads                  21125818                       # number of misc regfile reads (Count)
system.cpu.MemDepUnit__0.insertedLoads       13546507                       # Number of loads inserted to the mem dependence unit. (Count)
system.cpu.MemDepUnit__0.insertedStores       6943459                       # Number of stores inserted to the mem dependence unit. (Count)
system.cpu.MemDepUnit__0.conflictingLoads      3953358                       # Number of conflicting loads. (Count)
system.cpu.MemDepUnit__0.conflictingStores       311430                       # Number of conflicting stores. (Count)
system.cpu.MemDepUnit__1.insertedLoads              0                       # Number of loads inserted to the mem dependence unit. (Count)
system.cpu.MemDepUnit__1.insertedStores             0                       # Number of stores inserted to the mem dependence unit. (Count)
system.cpu.MemDepUnit__1.conflictingLoads            0                       # Number of conflicting loads. (Count)
system.cpu.MemDepUnit__1.conflictingStores            0                       # Number of conflicting stores. (Count)
system.cpu.MemDepUnit__2.insertedLoads              0                       # Number of loads inserted to the mem dependence unit. (Count)
system.cpu.MemDepUnit__2.insertedStores             0                       # Number of stores inserted to the mem dependence unit. (Count)
system.cpu.MemDepUnit__2.conflictingLoads            0                       # Number of conflicting loads. (Count)
system.cpu.MemDepUnit__2.conflictingStores            0                       # Number of conflicting stores. (Count)
system.cpu.MemDepUnit__3.insertedLoads              0                       # Number of loads inserted to the mem dependence unit. (Count)
system.cpu.MemDepUnit__3.insertedStores             0                       # Number of stores inserted to the mem dependence unit. (Count)
system.cpu.MemDepUnit__3.conflictingLoads            0                       # Number of conflicting loads. (Count)
system.cpu.MemDepUnit__3.conflictingStores            0                       # Number of conflicting stores. (Count)
system.cpu.branchPred.lookups                  328218                       # Number of BP lookups (Count)
system.cpu.branchPred.condPredicted            325911                       # Number of conditional branches predicted (Count)
system.cpu.branchPred.condIncorrect              1009                       # Number of conditional branches incorrect (Count)
system.cpu.branchPred.BTBLookups               322294                       # Number of BTB lookups (Count)
system.cpu.branchPred.BTBHits                  321190                       # Number of BTB hits (Count)
system.cpu.branchPred.BTBHitRatio            0.996575                       # BTB Hit Ratio (Ratio)
system.cpu.branchPred.RASUsed                     760                       # Number of times the RAS was used to get a target. (Count)
system.cpu.branchPred.RASIncorrect                  2                       # Number of incorrect RAS predictions. (Count)
system.cpu.branchPred.indirectLookups             378                       # Number of indirect predictor lookups. (Count)
system.cpu.branchPred.indirectHits                184                       # Number of indirect target hits. (Count)
system.cpu.branchPred.indirectMisses              194                       # Number of indirect misses. (Count)
system.cpu.branchPred.indirectMispredicted           84                       # Number of mispredicted indirect branches. (Count)
system.cpu.commit.commitSquashedInsts         1589338                       # The number of squashed insts skipped by commit (Count)
system.cpu.commit.commitNonSpecStalls              24                       # The number of times commit has been forced to stall to communicate backwards (Count)
system.cpu.commit.branchMispredicts               743                       # The number of times a branch was mispredicted (Count)
system.cpu.commit.numCommittedDist::samples     38707366                       # Number of insts commited each cycle (Count)
system.cpu.commit.numCommittedDist::mean     1.506111                       # Number of insts commited each cycle (Count)
system.cpu.commit.numCommittedDist::stdev     2.824244                       # Number of insts commited each cycle (Count)
system.cpu.commit.numCommittedDist::underflows            0      0.00%      0.00% # Number of insts commited each cycle (Count)
system.cpu.commit.numCommittedDist::0        24761341     63.97%     63.97% # Number of insts commited each cycle (Count)
system.cpu.commit.numCommittedDist::1         6208527     16.04%     80.01% # Number of insts commited each cycle (Count)
system.cpu.commit.numCommittedDist::2         1021378      2.64%     82.65% # Number of insts commited each cycle (Count)
system.cpu.commit.numCommittedDist::3          308641      0.80%     83.45% # Number of insts commited each cycle (Count)
system.cpu.commit.numCommittedDist::4          303526      0.78%     84.23% # Number of insts commited each cycle (Count)
system.cpu.commit.numCommittedDist::5          307416      0.79%     85.02% # Number of insts commited each cycle (Count)
system.cpu.commit.numCommittedDist::6             423      0.00%     85.03% # Number of insts commited each cycle (Count)
system.cpu.commit.numCommittedDist::7            2256      0.01%     85.03% # Number of insts commited each cycle (Count)
system.cpu.commit.numCommittedDist::8         5793858     14.97%    100.00% # Number of insts commited each cycle (Count)
system.cpu.commit.numCommittedDist::overflows            0      0.00%    100.00% # Number of insts commited each cycle (Count)
system.cpu.commit.numCommittedDist::min_value            0                       # Number of insts commited each cycle (Count)
system.cpu.commit.numCommittedDist::max_value            8                       # Number of insts commited each cycle (Count)
system.cpu.commit.numCommittedDist::total     38707366                       # Number of insts commited each cycle (Count)
system.cpu.commit.instsCommitted             50000000                       # Number of instructions committed (Count)
system.cpu.commit.opsCommitted               58297584                       # Number of ops (including micro ops) committed (Count)
system.cpu.commit.memRefs                    19938471                       # Number of memory references committed (Count)
system.cpu.commit.loads                      13189621                       # Number of loads committed (Count)
system.cpu.commit.amos                              0                       # Number of atomic instructions committed (Count)
system.cpu.commit.membars                          16                       # Number of memory barriers committed (Count)
system.cpu.commit.branches                     311038                       # Number of branches committed (Count)
system.cpu.commit.vectorInstructions                0                       # Number of committed Vector instructions. (Count)
system.cpu.commit.floating                        887                       # Number of committed floating point instructions. (Count)
system.cpu.commit.integer                    58296897                       # Number of committed integer instructions. (Count)
system.cpu.commit.functionCalls                   330                       # Number of function calls committed. (Count)
system.cpu.commit.committedInstType_0::No_OpClass           45      0.00%      0.00% # Class of committed instruction (Count)
system.cpu.commit.committedInstType_0::IntAlu     38358423     65.80%     65.80% # Class of committed instruction (Count)
system.cpu.commit.committedInstType_0::IntMult           26      0.00%     65.80% # Class of committed instruction (Count)
system.cpu.commit.committedInstType_0::IntDiv           70      0.00%     65.80% # Class of committed instruction (Count)
system.cpu.commit.committedInstType_0::FloatAdd           21      0.00%     65.80% # Class of committed instruction (Count)
system.cpu.commit.committedInstType_0::FloatCmp            0      0.00%     65.80% # Class of committed instruction (Count)
system.cpu.commit.committedInstType_0::FloatCvt            0      0.00%     65.80% # Class of committed instruction (Count)
system.cpu.commit.committedInstType_0::FloatMult            0      0.00%     65.80% # Class of committed instruction (Count)
system.cpu.commit.committedInstType_0::FloatMultAcc            0      0.00%     65.80% # Class of committed instruction (Count)
system.cpu.commit.committedInstType_0::FloatDiv            0      0.00%     65.80% # Class of committed instruction (Count)
system.cpu.commit.committedInstType_0::FloatMisc            0      0.00%     65.80% # Class of committed instruction (Count)
system.cpu.commit.committedInstType_0::FloatSqrt            0      0.00%     65.80% # Class of committed instruction (Count)
system.cpu.commit.committedInstType_0::SimdAdd            0      0.00%     65.80% # Class of committed instruction (Count)
system.cpu.commit.committedInstType_0::SimdAddAcc            0      0.00%     65.80% # Class of committed instruction (Count)
system.cpu.commit.committedInstType_0::SimdAlu          150      0.00%     65.80% # Class of committed instruction (Count)
system.cpu.commit.committedInstType_0::SimdCmp            0      0.00%     65.80% # Class of committed instruction (Count)
system.cpu.commit.committedInstType_0::SimdCvt          158      0.00%     65.80% # Class of committed instruction (Count)
system.cpu.commit.committedInstType_0::SimdMisc          220      0.00%     65.80% # Class of committed instruction (Count)
system.cpu.commit.committedInstType_0::SimdMult            0      0.00%     65.80% # Class of committed instruction (Count)
system.cpu.commit.committedInstType_0::SimdMultAcc            0      0.00%     65.80% # Class of committed instruction (Count)
system.cpu.commit.committedInstType_0::SimdShift            0      0.00%     65.80% # Class of committed instruction (Count)
system.cpu.commit.committedInstType_0::SimdShiftAcc            0      0.00%     65.80% # Class of committed instruction (Count)
system.cpu.commit.committedInstType_0::SimdDiv            0      0.00%     65.80% # Class of committed instruction (Count)
system.cpu.commit.committedInstType_0::SimdSqrt            0      0.00%     65.80% # Class of committed instruction (Count)
system.cpu.commit.committedInstType_0::SimdFloatAdd            0      0.00%     65.80% # Class of committed instruction (Count)
system.cpu.commit.committedInstType_0::SimdFloatAlu            0      0.00%     65.80% # Class of committed instruction (Count)
system.cpu.commit.committedInstType_0::SimdFloatCmp            0      0.00%     65.80% # Class of committed instruction (Count)
system.cpu.commit.committedInstType_0::SimdFloatCvt            0      0.00%     65.80% # Class of committed instruction (Count)
system.cpu.commit.committedInstType_0::SimdFloatDiv            0      0.00%     65.80% # Class of committed instruction (Count)
system.cpu.commit.committedInstType_0::SimdFloatMisc            0      0.00%     65.80% # Class of committed instruction (Count)
system.cpu.commit.committedInstType_0::SimdFloatMult            0      0.00%     65.80% # Class of committed instruction (Count)
system.cpu.commit.committedInstType_0::SimdFloatMultAcc            0      0.00%     65.80% # Class of committed instruction (Count)
system.cpu.commit.committedInstType_0::SimdFloatSqrt            0      0.00%     65.80% # Class of committed instruction (Count)
system.cpu.commit.committedInstType_0::SimdReduceAdd            0      0.00%     65.80% # Class of committed instruction (Count)
system.cpu.commit.committedInstType_0::SimdReduceAlu            0      0.00%     65.80% # Class of committed instruction (Count)
system.cpu.commit.committedInstType_0::SimdReduceCmp            0      0.00%     65.80% # Class of committed instruction (Count)
system.cpu.commit.committedInstType_0::SimdFloatReduceAdd            0      0.00%     65.80% # Class of committed instruction (Count)
system.cpu.commit.committedInstType_0::SimdFloatReduceCmp            0      0.00%     65.80% # Class of committed instruction (Count)
system.cpu.commit.committedInstType_0::SimdAes            0      0.00%     65.80% # Class of committed instruction (Count)
system.cpu.commit.committedInstType_0::SimdAesMix            0      0.00%     65.80% # Class of committed instruction (Count)
system.cpu.commit.committedInstType_0::SimdSha1Hash            0      0.00%     65.80% # Class of committed instruction (Count)
system.cpu.commit.committedInstType_0::SimdSha1Hash2            0      0.00%     65.80% # Class of committed instruction (Count)
system.cpu.commit.committedInstType_0::SimdSha256Hash            0      0.00%     65.80% # Class of committed instruction (Count)
system.cpu.commit.committedInstType_0::SimdSha256Hash2            0      0.00%     65.80% # Class of committed instruction (Count)
system.cpu.commit.committedInstType_0::SimdShaSigma2            0      0.00%     65.80% # Class of committed instruction (Count)
system.cpu.commit.committedInstType_0::SimdShaSigma3            0      0.00%     65.80% # Class of committed instruction (Count)
system.cpu.commit.committedInstType_0::SimdPredAlu            0      0.00%     65.80% # Class of committed instruction (Count)
system.cpu.commit.committedInstType_0::MemRead     13189522     22.62%     88.42% # Class of committed instruction (Count)
system.cpu.commit.committedInstType_0::MemWrite      6748679     11.58%    100.00% # Class of committed instruction (Count)
system.cpu.commit.committedInstType_0::FloatMemRead           99      0.00%    100.00% # Class of committed instruction (Count)
system.cpu.commit.committedInstType_0::FloatMemWrite          171      0.00%    100.00% # Class of committed instruction (Count)
system.cpu.commit.committedInstType_0::IprAccess            0      0.00%    100.00% # Class of committed instruction (Count)
system.cpu.commit.committedInstType_0::InstPrefetch            0      0.00%    100.00% # Class of committed instruction (Count)
system.cpu.commit.committedInstType_0::total     58297584                       # Class of committed instruction (Count)
system.cpu.commit.commitEligibleSamples       5793858                       # number cycles where commit BW limit reached (Cycle)
system.cpu.dcache.demandHits::cpu.data       12877650                       # number of demand (read+write) hits (Count)
system.cpu.dcache.demandHits::total          12877650                       # number of demand (read+write) hits (Count)
system.cpu.dcache.overallHits::cpu.data      12877650                       # number of overall hits (Count)
system.cpu.dcache.overallHits::total         12877650                       # number of overall hits (Count)
system.cpu.dcache.demandMisses::cpu.data       300052                       # number of demand (read+write) misses (Count)
system.cpu.dcache.demandMisses::total          300052                       # number of demand (read+write) misses (Count)
system.cpu.dcache.overallMisses::cpu.data       300052                       # number of overall misses (Count)
system.cpu.dcache.overallMisses::total         300052                       # number of overall misses (Count)
system.cpu.dcache.demandMissLatency::cpu.data  24111686000                       # number of demand (read+write) miss ticks (Tick)
system.cpu.dcache.demandMissLatency::total  24111686000                       # number of demand (read+write) miss ticks (Tick)
system.cpu.dcache.overallMissLatency::cpu.data  24111686000                       # number of overall miss ticks (Tick)
system.cpu.dcache.overallMissLatency::total  24111686000                       # number of overall miss ticks (Tick)
system.cpu.dcache.demandAccesses::cpu.data     13177702                       # number of demand (read+write) accesses (Count)
system.cpu.dcache.demandAccesses::total      13177702                       # number of demand (read+write) accesses (Count)
system.cpu.dcache.overallAccesses::cpu.data     13177702                       # number of overall (read+write) accesses (Count)
system.cpu.dcache.overallAccesses::total     13177702                       # number of overall (read+write) accesses (Count)
system.cpu.dcache.demandMissRate::cpu.data     0.022770                       # miss rate for demand accesses (Ratio)
system.cpu.dcache.demandMissRate::total      0.022770                       # miss rate for demand accesses (Ratio)
system.cpu.dcache.overallMissRate::cpu.data     0.022770                       # miss rate for overall accesses (Ratio)
system.cpu.dcache.overallMissRate::total     0.022770                       # miss rate for overall accesses (Ratio)
system.cpu.dcache.demandAvgMissLatency::cpu.data 80358.357885                       # average overall miss latency in ticks ((Tick/Count))
system.cpu.dcache.demandAvgMissLatency::total 80358.357885                       # average overall miss latency in ticks ((Tick/Count))
system.cpu.dcache.overallAvgMissLatency::cpu.data 80358.357885                       # average overall miss latency ((Tick/Count))
system.cpu.dcache.overallAvgMissLatency::total 80358.357885                       # average overall miss latency ((Tick/Count))
system.cpu.dcache.blockedCycles::no_mshrs           88                       # number of cycles access was blocked (Cycle)
system.cpu.dcache.blockedCycles::no_targets            0                       # number of cycles access was blocked (Cycle)
system.cpu.dcache.blockedCauses::no_mshrs            6                       # number of times access was blocked (Count)
system.cpu.dcache.blockedCauses::no_targets            0                       # number of times access was blocked (Count)
system.cpu.dcache.avgBlocked::no_mshrs      14.666667                       # average number of cycles each access was blocked ((Cycle/Count))
system.cpu.dcache.avgBlocked::no_targets          nan                       # average number of cycles each access was blocked ((Cycle/Count))
system.cpu.dcache.writebacks::writebacks       765719                       # number of writebacks (Count)
system.cpu.dcache.writebacks::total            765719                       # number of writebacks (Count)
system.cpu.dcache.demandMshrHits::cpu.data        25761                       # number of demand (read+write) MSHR hits (Count)
system.cpu.dcache.demandMshrHits::total         25761                       # number of demand (read+write) MSHR hits (Count)
system.cpu.dcache.overallMshrHits::cpu.data        25761                       # number of overall MSHR hits (Count)
system.cpu.dcache.overallMshrHits::total        25761                       # number of overall MSHR hits (Count)
system.cpu.dcache.demandMshrMisses::cpu.data       274291                       # number of demand (read+write) MSHR misses (Count)
system.cpu.dcache.demandMshrMisses::total       274291                       # number of demand (read+write) MSHR misses (Count)
system.cpu.dcache.overallMshrMisses::cpu.data       274291                       # number of overall MSHR misses (Count)
system.cpu.dcache.overallMshrMisses::cpu.dcache.prefetcher       492533                       # number of overall MSHR misses (Count)
system.cpu.dcache.overallMshrMisses::total       766824                       # number of overall MSHR misses (Count)
system.cpu.dcache.demandMshrMissLatency::cpu.data  21604435000                       # number of demand (read+write) MSHR miss ticks (Tick)
system.cpu.dcache.demandMshrMissLatency::total  21604435000                       # number of demand (read+write) MSHR miss ticks (Tick)
system.cpu.dcache.overallMshrMissLatency::cpu.data  21604435000                       # number of overall MSHR miss ticks (Tick)
system.cpu.dcache.overallMshrMissLatency::cpu.dcache.prefetcher  46114806733                       # number of overall MSHR miss ticks (Tick)
system.cpu.dcache.overallMshrMissLatency::total  67719241733                       # number of overall MSHR miss ticks (Tick)
system.cpu.dcache.demandMshrMissRate::cpu.data     0.020815                       # mshr miss ratio for demand accesses (Ratio)
system.cpu.dcache.demandMshrMissRate::total     0.020815                       # mshr miss ratio for demand accesses (Ratio)
system.cpu.dcache.overallMshrMissRate::cpu.data     0.020815                       # mshr miss ratio for overall accesses (Ratio)
system.cpu.dcache.overallMshrMissRate::cpu.dcache.prefetcher          inf                       # mshr miss ratio for overall accesses (Ratio)
system.cpu.dcache.overallMshrMissRate::total     0.058191                       # mshr miss ratio for overall accesses (Ratio)
system.cpu.dcache.demandAvgMshrMissLatency::cpu.data 78764.651410                       # average overall mshr miss latency ((Tick/Count))
system.cpu.dcache.demandAvgMshrMissLatency::total 78764.651410                       # average overall mshr miss latency ((Tick/Count))
system.cpu.dcache.overallAvgMshrMissLatency::cpu.data 78764.651410                       # average overall mshr miss latency ((Tick/Count))
system.cpu.dcache.overallAvgMshrMissLatency::cpu.dcache.prefetcher 93627.851805                       # average overall mshr miss latency ((Tick/Count))
system.cpu.dcache.overallAvgMshrMissLatency::total 88311.322719                       # average overall mshr miss latency ((Tick/Count))
system.cpu.dcache.replacements                 765798                       # number of replacements (Count)
system.cpu.dcache.HardPFReq.mshrMisses::cpu.dcache.prefetcher       492533                       # number of HardPFReq MSHR misses (Count)
system.cpu.dcache.HardPFReq.mshrMisses::total       492533                       # number of HardPFReq MSHR misses (Count)
system.cpu.dcache.HardPFReq.mshrMissLatency::cpu.dcache.prefetcher  46114806733                       # number of HardPFReq MSHR miss ticks (Tick)
system.cpu.dcache.HardPFReq.mshrMissLatency::total  46114806733                       # number of HardPFReq MSHR miss ticks (Tick)
system.cpu.dcache.HardPFReq.mshrMissRate::cpu.dcache.prefetcher          inf                       # mshr miss rate for HardPFReq accesses (Ratio)
system.cpu.dcache.HardPFReq.mshrMissRate::total          inf                       # mshr miss rate for HardPFReq accesses (Ratio)
system.cpu.dcache.HardPFReq.avgMshrMissLatency::cpu.dcache.prefetcher 93627.851805                       # average HardPFReq mshr miss latency ((Tick/Count))
system.cpu.dcache.HardPFReq.avgMshrMissLatency::total 93627.851805                       # average HardPFReq mshr miss latency ((Tick/Count))
system.cpu.dcache.LockedRMWReadReq.hits::cpu.data            8                       # number of LockedRMWReadReq hits (Count)
system.cpu.dcache.LockedRMWReadReq.hits::total            8                       # number of LockedRMWReadReq hits (Count)
system.cpu.dcache.LockedRMWReadReq.accesses::cpu.data            8                       # number of LockedRMWReadReq accesses(hits+misses) (Count)
system.cpu.dcache.LockedRMWReadReq.accesses::total            8                       # number of LockedRMWReadReq accesses(hits+misses) (Count)
system.cpu.dcache.LockedRMWReadReq.mshrMissLatency::cpu.data       113000                       # number of LockedRMWReadReq MSHR miss ticks (Tick)
system.cpu.dcache.LockedRMWReadReq.mshrMissLatency::total       113000                       # number of LockedRMWReadReq MSHR miss ticks (Tick)
system.cpu.dcache.LockedRMWReadReq.avgMshrMissLatency::cpu.data          inf                       # average LockedRMWReadReq mshr miss latency ((Tick/Count))
system.cpu.dcache.LockedRMWReadReq.avgMshrMissLatency::total          inf                       # average LockedRMWReadReq mshr miss latency ((Tick/Count))
system.cpu.dcache.LockedRMWWriteReq.hits::cpu.data            8                       # number of LockedRMWWriteReq hits (Count)
system.cpu.dcache.LockedRMWWriteReq.hits::total            8                       # number of LockedRMWWriteReq hits (Count)
system.cpu.dcache.LockedRMWWriteReq.accesses::cpu.data            8                       # number of LockedRMWWriteReq accesses(hits+misses) (Count)
system.cpu.dcache.LockedRMWWriteReq.accesses::total            8                       # number of LockedRMWWriteReq accesses(hits+misses) (Count)
system.cpu.dcache.ReadReq.hits::cpu.data      6428689                       # number of ReadReq hits (Count)
system.cpu.dcache.ReadReq.hits::total         6428689                       # number of ReadReq hits (Count)
system.cpu.dcache.ReadReq.misses::cpu.data          185                       # number of ReadReq misses (Count)
system.cpu.dcache.ReadReq.misses::total           185                       # number of ReadReq misses (Count)
system.cpu.dcache.ReadReq.missLatency::cpu.data     15231000                       # number of ReadReq miss ticks (Tick)
system.cpu.dcache.ReadReq.missLatency::total     15231000                       # number of ReadReq miss ticks (Tick)
system.cpu.dcache.ReadReq.accesses::cpu.data      6428874                       # number of ReadReq accesses(hits+misses) (Count)
system.cpu.dcache.ReadReq.accesses::total      6428874                       # number of ReadReq accesses(hits+misses) (Count)
system.cpu.dcache.ReadReq.missRate::cpu.data     0.000029                       # miss rate for ReadReq accesses (Ratio)
system.cpu.dcache.ReadReq.missRate::total     0.000029                       # miss rate for ReadReq accesses (Ratio)
system.cpu.dcache.ReadReq.avgMissLatency::cpu.data 82329.729730                       # average ReadReq miss latency ((Tick/Count))
system.cpu.dcache.ReadReq.avgMissLatency::total 82329.729730                       # average ReadReq miss latency ((Tick/Count))
system.cpu.dcache.ReadReq.mshrHits::cpu.data           81                       # number of ReadReq MSHR hits (Count)
system.cpu.dcache.ReadReq.mshrHits::total           81                       # number of ReadReq MSHR hits (Count)
system.cpu.dcache.ReadReq.mshrMisses::cpu.data          104                       # number of ReadReq MSHR misses (Count)
system.cpu.dcache.ReadReq.mshrMisses::total          104                       # number of ReadReq MSHR misses (Count)
system.cpu.dcache.ReadReq.mshrMissLatency::cpu.data      9510000                       # number of ReadReq MSHR miss ticks (Tick)
system.cpu.dcache.ReadReq.mshrMissLatency::total      9510000                       # number of ReadReq MSHR miss ticks (Tick)
system.cpu.dcache.ReadReq.mshrMissRate::cpu.data     0.000016                       # mshr miss rate for ReadReq accesses (Ratio)
system.cpu.dcache.ReadReq.mshrMissRate::total     0.000016                       # mshr miss rate for ReadReq accesses (Ratio)
system.cpu.dcache.ReadReq.avgMshrMissLatency::cpu.data 91442.307692                       # average ReadReq mshr miss latency ((Tick/Count))
system.cpu.dcache.ReadReq.avgMshrMissLatency::total 91442.307692                       # average ReadReq mshr miss latency ((Tick/Count))
system.cpu.dcache.WriteReq.hits::cpu.data      6448961                       # number of WriteReq hits (Count)
system.cpu.dcache.WriteReq.hits::total        6448961                       # number of WriteReq hits (Count)
system.cpu.dcache.WriteReq.misses::cpu.data       299867                       # number of WriteReq misses (Count)
system.cpu.dcache.WriteReq.misses::total       299867                       # number of WriteReq misses (Count)
system.cpu.dcache.WriteReq.missLatency::cpu.data  24096455000                       # number of WriteReq miss ticks (Tick)
system.cpu.dcache.WriteReq.missLatency::total  24096455000                       # number of WriteReq miss ticks (Tick)
system.cpu.dcache.WriteReq.accesses::cpu.data      6748828                       # number of WriteReq accesses(hits+misses) (Count)
system.cpu.dcache.WriteReq.accesses::total      6748828                       # number of WriteReq accesses(hits+misses) (Count)
system.cpu.dcache.WriteReq.missRate::cpu.data     0.044432                       # miss rate for WriteReq accesses (Ratio)
system.cpu.dcache.WriteReq.missRate::total     0.044432                       # miss rate for WriteReq accesses (Ratio)
system.cpu.dcache.WriteReq.avgMissLatency::cpu.data 80357.141666                       # average WriteReq miss latency ((Tick/Count))
system.cpu.dcache.WriteReq.avgMissLatency::total 80357.141666                       # average WriteReq miss latency ((Tick/Count))
system.cpu.dcache.WriteReq.mshrHits::cpu.data        25680                       # number of WriteReq MSHR hits (Count)
system.cpu.dcache.WriteReq.mshrHits::total        25680                       # number of WriteReq MSHR hits (Count)
system.cpu.dcache.WriteReq.mshrMisses::cpu.data       274187                       # number of WriteReq MSHR misses (Count)
system.cpu.dcache.WriteReq.mshrMisses::total       274187                       # number of WriteReq MSHR misses (Count)
system.cpu.dcache.WriteReq.mshrMissLatency::cpu.data  21594925000                       # number of WriteReq MSHR miss ticks (Tick)
system.cpu.dcache.WriteReq.mshrMissLatency::total  21594925000                       # number of WriteReq MSHR miss ticks (Tick)
system.cpu.dcache.WriteReq.mshrMissRate::cpu.data     0.040627                       # mshr miss rate for WriteReq accesses (Ratio)
system.cpu.dcache.WriteReq.mshrMissRate::total     0.040627                       # mshr miss rate for WriteReq accesses (Ratio)
system.cpu.dcache.WriteReq.avgMshrMissLatency::cpu.data 78759.842735                       # average WriteReq mshr miss latency ((Tick/Count))
system.cpu.dcache.WriteReq.avgMshrMissLatency::total 78759.842735                       # average WriteReq mshr miss latency ((Tick/Count))
system.cpu.dcache.power_state.pwrStateResidencyTicks::UNDEFINED  38922066000                       # Cumulative time (in ticks) in various power states (Tick)
system.cpu.dcache.prefetcher.demandMshrMisses       274291                       # demands not covered by prefetchs (Count)
system.cpu.dcache.prefetcher.pfIssued          607957                       # number of hwpf issued (Count)
system.cpu.dcache.prefetcher.pfUnused               1                       # number of HardPF blocks evicted w/o reference (Count)
system.cpu.dcache.prefetcher.pfUseful          466851                       # number of useful prefetch (Count)
system.cpu.dcache.prefetcher.pfUsefulButMiss            0                       # number of hit on prefetch but cache block is not in an usable state (Count)
system.cpu.dcache.prefetcher.accuracy        0.767901                       # accuracy of the prefetcher (Count)
system.cpu.dcache.prefetcher.coverage        0.629908                       # coverage brought by this prefetcher (Count)
system.cpu.dcache.prefetcher.pfHitInCache       115374                       # number of prefetches hitting in cache (Count)
system.cpu.dcache.prefetcher.pfHitInMSHR           50                       # number of prefetches hitting in a MSHR (Count)
system.cpu.dcache.prefetcher.pfHitInWB              0                       # number of prefetches hit in the Write Buffer (Count)
system.cpu.dcache.prefetcher.pfLate            115424                       # number of late prefetches (hitting in cache, MSHR or WB) (Count)
system.cpu.dcache.prefetcher.pfIdentified       704150                       # number of prefetch candidates identified (Count)
system.cpu.dcache.prefetcher.pfBufferHit        81956                       # number of redundant prefetches already in prefetch queue (Count)
system.cpu.dcache.prefetcher.pfInCache              0                       # number of redundant prefetches already in cache/mshr dropped (Count)
system.cpu.dcache.prefetcher.pfRemovedDemand         8383                       # number of prefetches dropped due to a demand for the same address (Count)
system.cpu.dcache.prefetcher.pfRemovedFull            0                       # number of prefetches dropped due to prefetch queue size (Count)
system.cpu.dcache.prefetcher.pfSpanPage        490946                       # number of prefetches that crossed the page (Count)
system.cpu.dcache.prefetcher.pfUsefulSpanPage            0                       # number of prefetches that is useful and crossed the page (Count)
system.cpu.dcache.prefetcher.power_state.pwrStateResidencyTicks::UNDEFINED  38922066000                       # Cumulative time (in ticks) in various power states (Tick)
system.cpu.dcache.tags.tagsInUse          1022.303718                       # Average ticks per tags in use ((Tick/Count))
system.cpu.dcache.tags.totalRefs             13644488                       # Total number of references to valid blocks. (Count)
system.cpu.dcache.tags.sampledRefs             766822                       # Sample count of references to valid blocks. (Count)
system.cpu.dcache.tags.avgRefs              17.793553                       # Average number of references to valid blocks. ((Count/Count))
system.cpu.dcache.tags.warmupTick              263000                       # The tick when the warmup percentage was hit. (Tick)
system.cpu.dcache.tags.occupancies::cpu.data   364.181280                       # Average occupied blocks per tick, per requestor ((Count/Tick))
system.cpu.dcache.tags.occupancies::cpu.dcache.prefetcher   658.122437                       # Average occupied blocks per tick, per requestor ((Count/Tick))
system.cpu.dcache.tags.avgOccs::cpu.data     0.355646                       # Average percentage of cache occupancy ((Ratio/Tick))
system.cpu.dcache.tags.avgOccs::cpu.dcache.prefetcher     0.642698                       # Average percentage of cache occupancy ((Ratio/Tick))
system.cpu.dcache.tags.avgOccs::total        0.998343                       # Average percentage of cache occupancy ((Ratio/Tick))
system.cpu.dcache.tags.occupanciesTaskId::1022          660                       # Occupied blocks per task id (Count)
system.cpu.dcache.tags.occupanciesTaskId::1024          364                       # Occupied blocks per task id (Count)
system.cpu.dcache.tags.ageTaskId_1022::0          123                       # Occupied blocks per task id, per block age (Count)
system.cpu.dcache.tags.ageTaskId_1022::1          537                       # Occupied blocks per task id, per block age (Count)
system.cpu.dcache.tags.ageTaskId_1024::0           72                       # Occupied blocks per task id, per block age (Count)
system.cpu.dcache.tags.ageTaskId_1024::1          291                       # Occupied blocks per task id, per block age (Count)
system.cpu.dcache.tags.ageTaskId_1024::4            1                       # Occupied blocks per task id, per block age (Count)
system.cpu.dcache.tags.ratioOccsTaskId::1022     0.644531                       # Ratio of occupied blocks and all blocks, per task id (Ratio)
system.cpu.dcache.tags.ratioOccsTaskId::1024     0.355469                       # Ratio of occupied blocks and all blocks, per task id (Ratio)
system.cpu.dcache.tags.tagAccesses           53477694                       # Number of tag accesses (Count)
system.cpu.dcache.tags.dataAccesses          53477694                       # Number of data accesses (Count)
system.cpu.dcache.tags.power_state.pwrStateResidencyTicks::UNDEFINED  38922066000                       # Cumulative time (in ticks) in various power states (Tick)
system.cpu.decode.idleCycles                  2076877                       # Number of cycles decode is idle (Cycle)
system.cpu.decode.blockedCycles              29277986                       # Number of cycles decode is blocked (Cycle)
system.cpu.decode.runCycles                   1826788                       # Number of cycles decode is running (Cycle)
system.cpu.decode.unblockCycles               5712300                       # Number of cycles decode is unblocking (Cycle)
system.cpu.decode.squashCycles                  13227                       # Number of cycles decode is squashing (Cycle)
system.cpu.decode.branchResolved               317454                       # Number of times decode resolved a branch (Count)
system.cpu.decode.branchMispred                   295                       # Number of times decode detected a branch misprediction (Count)
system.cpu.decode.decodedInsts               59964382                       # Number of instructions handled by decode (Count)
system.cpu.decode.squashedInsts                  1286                       # Number of squashed instructions handled by decode (Count)
system.cpu.fetch.icacheStallCycles            3858058                       # Number of cycles fetch is stalled on an Icache miss (Cycle)
system.cpu.fetch.insts                       51873073                       # Number of instructions fetch has processed (Count)
system.cpu.fetch.branches                      328218                       # Number of branches that fetch encountered (Count)
system.cpu.fetch.predictedBranches             322134                       # Number of branches that fetch has predicted taken (Count)
system.cpu.fetch.cycles                      35035382                       # Number of cycles fetch has run and was not squashing or blocked (Cycle)
system.cpu.fetch.squashCycles                   27038                       # Number of cycles fetch has spent squashing (Cycle)
system.cpu.fetch.miscStallCycles                   34                       # Number of cycles fetch has spent waiting on interrupts, or bad addresses, or out of MSHRs (Cycle)
system.cpu.fetch.pendingTrapStallCycles           185                       # Number of stall cycles due to pending traps (Cycle)
system.cpu.fetch.cacheLines                   3830471                       # Number of cache lines fetched (Count)
system.cpu.fetch.icacheSquashes                   602                       # Number of outstanding Icache misses that were squashed (Count)
system.cpu.fetch.nisnDist::samples           38907178                       # Number of instructions fetched each cycle (Total) (Count)
system.cpu.fetch.nisnDist::mean              1.555136                       # Number of instructions fetched each cycle (Total) (Count)
system.cpu.fetch.nisnDist::stdev             2.895265                       # Number of instructions fetched each cycle (Total) (Count)
system.cpu.fetch.nisnDist::underflows               0      0.00%      0.00% # Number of instructions fetched each cycle (Total) (Count)
system.cpu.fetch.nisnDist::0                 28400187     72.99%     72.99% # Number of instructions fetched each cycle (Total) (Count)
system.cpu.fetch.nisnDist::1                  1202697      3.09%     76.09% # Number of instructions fetched each cycle (Total) (Count)
system.cpu.fetch.nisnDist::2                   719860      1.85%     77.94% # Number of instructions fetched each cycle (Total) (Count)
system.cpu.fetch.nisnDist::3                   714492      1.84%     79.77% # Number of instructions fetched each cycle (Total) (Count)
system.cpu.fetch.nisnDist::4                   753020      1.94%     81.71% # Number of instructions fetched each cycle (Total) (Count)
system.cpu.fetch.nisnDist::5                   669964      1.72%     83.43% # Number of instructions fetched each cycle (Total) (Count)
system.cpu.fetch.nisnDist::6                   791903      2.04%     85.47% # Number of instructions fetched each cycle (Total) (Count)
system.cpu.fetch.nisnDist::7                   633684      1.63%     87.09% # Number of instructions fetched each cycle (Total) (Count)
system.cpu.fetch.nisnDist::8                  5021371     12.91%    100.00% # Number of instructions fetched each cycle (Total) (Count)
system.cpu.fetch.nisnDist::overflows                0      0.00%    100.00% # Number of instructions fetched each cycle (Total) (Count)
system.cpu.fetch.nisnDist::min_value                0                       # Number of instructions fetched each cycle (Total) (Count)
system.cpu.fetch.nisnDist::max_value                8                       # Number of instructions fetched each cycle (Total) (Count)
system.cpu.fetch.nisnDist::total             38907178                       # Number of instructions fetched each cycle (Total) (Count)
system.cpu.fetch.branchRate                  0.008433                       # Number of branch fetches per cycle (Ratio)
system.cpu.fetch.rate                        1.332742                       # Number of inst fetches per cycle ((Count/Cycle))
system.cpu.icache.demandHits::cpu.inst        3829663                       # number of demand (read+write) hits (Count)
system.cpu.icache.demandHits::total           3829663                       # number of demand (read+write) hits (Count)
system.cpu.icache.overallHits::cpu.inst       3829663                       # number of overall hits (Count)
system.cpu.icache.overallHits::total          3829663                       # number of overall hits (Count)
system.cpu.icache.demandMisses::cpu.inst          808                       # number of demand (read+write) misses (Count)
system.cpu.icache.demandMisses::total             808                       # number of demand (read+write) misses (Count)
system.cpu.icache.overallMisses::cpu.inst          808                       # number of overall misses (Count)
system.cpu.icache.overallMisses::total            808                       # number of overall misses (Count)
system.cpu.icache.demandMissLatency::cpu.inst     61287000                       # number of demand (read+write) miss ticks (Tick)
system.cpu.icache.demandMissLatency::total     61287000                       # number of demand (read+write) miss ticks (Tick)
system.cpu.icache.overallMissLatency::cpu.inst     61287000                       # number of overall miss ticks (Tick)
system.cpu.icache.overallMissLatency::total     61287000                       # number of overall miss ticks (Tick)
system.cpu.icache.demandAccesses::cpu.inst      3830471                       # number of demand (read+write) accesses (Count)
system.cpu.icache.demandAccesses::total       3830471                       # number of demand (read+write) accesses (Count)
system.cpu.icache.overallAccesses::cpu.inst      3830471                       # number of overall (read+write) accesses (Count)
system.cpu.icache.overallAccesses::total      3830471                       # number of overall (read+write) accesses (Count)
system.cpu.icache.demandMissRate::cpu.inst     0.000211                       # miss rate for demand accesses (Ratio)
system.cpu.icache.demandMissRate::total      0.000211                       # miss rate for demand accesses (Ratio)
system.cpu.icache.overallMissRate::cpu.inst     0.000211                       # miss rate for overall accesses (Ratio)
system.cpu.icache.overallMissRate::total     0.000211                       # miss rate for overall accesses (Ratio)
system.cpu.icache.demandAvgMissLatency::cpu.inst 75850.247525                       # average overall miss latency in ticks ((Tick/Count))
system.cpu.icache.demandAvgMissLatency::total 75850.247525                       # average overall miss latency in ticks ((Tick/Count))
system.cpu.icache.overallAvgMissLatency::cpu.inst 75850.247525                       # average overall miss latency ((Tick/Count))
system.cpu.icache.overallAvgMissLatency::total 75850.247525                       # average overall miss latency ((Tick/Count))
system.cpu.icache.blockedCycles::no_mshrs          382                       # number of cycles access was blocked (Cycle)
system.cpu.icache.blockedCycles::no_targets            0                       # number of cycles access was blocked (Cycle)
system.cpu.icache.blockedCauses::no_mshrs            4                       # number of times access was blocked (Count)
system.cpu.icache.blockedCauses::no_targets            0                       # number of times access was blocked (Count)
system.cpu.icache.avgBlocked::no_mshrs      95.500000                       # average number of cycles each access was blocked ((Cycle/Count))
system.cpu.icache.avgBlocked::no_targets          nan                       # average number of cycles each access was blocked ((Cycle/Count))
system.cpu.icache.demandMshrHits::cpu.inst          194                       # number of demand (read+write) MSHR hits (Count)
system.cpu.icache.demandMshrHits::total           194                       # number of demand (read+write) MSHR hits (Count)
system.cpu.icache.overallMshrHits::cpu.inst          194                       # number of overall MSHR hits (Count)
system.cpu.icache.overallMshrHits::total          194                       # number of overall MSHR hits (Count)
system.cpu.icache.demandMshrMisses::cpu.inst          614                       # number of demand (read+write) MSHR misses (Count)
system.cpu.icache.demandMshrMisses::total          614                       # number of demand (read+write) MSHR misses (Count)
system.cpu.icache.overallMshrMisses::cpu.inst          614                       # number of overall MSHR misses (Count)
system.cpu.icache.overallMshrMisses::total          614                       # number of overall MSHR misses (Count)
system.cpu.icache.demandMshrMissLatency::cpu.inst     50273000                       # number of demand (read+write) MSHR miss ticks (Tick)
system.cpu.icache.demandMshrMissLatency::total     50273000                       # number of demand (read+write) MSHR miss ticks (Tick)
system.cpu.icache.overallMshrMissLatency::cpu.inst     50273000                       # number of overall MSHR miss ticks (Tick)
system.cpu.icache.overallMshrMissLatency::total     50273000                       # number of overall MSHR miss ticks (Tick)
system.cpu.icache.demandMshrMissRate::cpu.inst     0.000160                       # mshr miss ratio for demand accesses (Ratio)
system.cpu.icache.demandMshrMissRate::total     0.000160                       # mshr miss ratio for demand accesses (Ratio)
system.cpu.icache.overallMshrMissRate::cpu.inst     0.000160                       # mshr miss ratio for overall accesses (Ratio)
system.cpu.icache.overallMshrMissRate::total     0.000160                       # mshr miss ratio for overall accesses (Ratio)
system.cpu.icache.demandAvgMshrMissLatency::cpu.inst 81877.850163                       # average overall mshr miss latency ((Tick/Count))
system.cpu.icache.demandAvgMshrMissLatency::total 81877.850163                       # average overall mshr miss latency ((Tick/Count))
system.cpu.icache.overallAvgMshrMissLatency::cpu.inst 81877.850163                       # average overall mshr miss latency ((Tick/Count))
system.cpu.icache.overallAvgMshrMissLatency::total 81877.850163                       # average overall mshr miss latency ((Tick/Count))
system.cpu.icache.replacements                     24                       # number of replacements (Count)
system.cpu.icache.ReadReq.hits::cpu.inst      3829663                       # number of ReadReq hits (Count)
system.cpu.icache.ReadReq.hits::total         3829663                       # number of ReadReq hits (Count)
system.cpu.icache.ReadReq.misses::cpu.inst          808                       # number of ReadReq misses (Count)
system.cpu.icache.ReadReq.misses::total           808                       # number of ReadReq misses (Count)
system.cpu.icache.ReadReq.missLatency::cpu.inst     61287000                       # number of ReadReq miss ticks (Tick)
system.cpu.icache.ReadReq.missLatency::total     61287000                       # number of ReadReq miss ticks (Tick)
system.cpu.icache.ReadReq.accesses::cpu.inst      3830471                       # number of ReadReq accesses(hits+misses) (Count)
system.cpu.icache.ReadReq.accesses::total      3830471                       # number of ReadReq accesses(hits+misses) (Count)
system.cpu.icache.ReadReq.missRate::cpu.inst     0.000211                       # miss rate for ReadReq accesses (Ratio)
system.cpu.icache.ReadReq.missRate::total     0.000211                       # miss rate for ReadReq accesses (Ratio)
system.cpu.icache.ReadReq.avgMissLatency::cpu.inst 75850.247525                       # average ReadReq miss latency ((Tick/Count))
system.cpu.icache.ReadReq.avgMissLatency::total 75850.247525                       # average ReadReq miss latency ((Tick/Count))
system.cpu.icache.ReadReq.mshrHits::cpu.inst          194                       # number of ReadReq MSHR hits (Count)
system.cpu.icache.ReadReq.mshrHits::total          194                       # number of ReadReq MSHR hits (Count)
system.cpu.icache.ReadReq.mshrMisses::cpu.inst          614                       # number of ReadReq MSHR misses (Count)
system.cpu.icache.ReadReq.mshrMisses::total          614                       # number of ReadReq MSHR misses (Count)
system.cpu.icache.ReadReq.mshrMissLatency::cpu.inst     50273000                       # number of ReadReq MSHR miss ticks (Tick)
system.cpu.icache.ReadReq.mshrMissLatency::total     50273000                       # number of ReadReq MSHR miss ticks (Tick)
system.cpu.icache.ReadReq.mshrMissRate::cpu.inst     0.000160                       # mshr miss rate for ReadReq accesses (Ratio)
system.cpu.icache.ReadReq.mshrMissRate::total     0.000160                       # mshr miss rate for ReadReq accesses (Ratio)
system.cpu.icache.ReadReq.avgMshrMissLatency::cpu.inst 81877.850163                       # average ReadReq mshr miss latency ((Tick/Count))
system.cpu.icache.ReadReq.avgMshrMissLatency::total 81877.850163                       # average ReadReq mshr miss latency ((Tick/Count))
system.cpu.icache.power_state.pwrStateResidencyTicks::UNDEFINED  38922066000                       # Cumulative time (in ticks) in various power states (Tick)
system.cpu.icache.prefetcher.demandMshrMisses          614                       # demands not covered by prefetchs (Count)
system.cpu.icache.prefetcher.pfIssued               0                       # number of hwpf issued (Count)
system.cpu.icache.prefetcher.pfUseful               0                       # number of useful prefetch (Count)
system.cpu.icache.prefetcher.pfUsefulButMiss            0                       # number of hit on prefetch but cache block is not in an usable state (Count)
system.cpu.icache.prefetcher.accuracy             nan                       # accuracy of the prefetcher (Count)
system.cpu.icache.prefetcher.coverage               0                       # coverage brought by this prefetcher (Count)
system.cpu.icache.prefetcher.pfHitInCache            0                       # number of prefetches hitting in cache (Count)
system.cpu.icache.prefetcher.pfHitInMSHR            0                       # number of prefetches hitting in a MSHR (Count)
system.cpu.icache.prefetcher.pfHitInWB              0                       # number of prefetches hit in the Write Buffer (Count)
system.cpu.icache.prefetcher.pfLate                 0                       # number of late prefetches (hitting in cache, MSHR or WB) (Count)
system.cpu.icache.prefetcher.pfIdentified            0                       # number of prefetch candidates identified (Count)
system.cpu.icache.prefetcher.pfBufferHit            0                       # number of redundant prefetches already in prefetch queue (Count)
system.cpu.icache.prefetcher.pfInCache              0                       # number of redundant prefetches already in cache/mshr dropped (Count)
system.cpu.icache.prefetcher.pfRemovedDemand            0                       # number of prefetches dropped due to a demand for the same address (Count)
system.cpu.icache.prefetcher.pfRemovedFull            0                       # number of prefetches dropped due to prefetch queue size (Count)
system.cpu.icache.prefetcher.pfSpanPage             0                       # number of prefetches that crossed the page (Count)
system.cpu.icache.prefetcher.pfUsefulSpanPage            0                       # number of prefetches that is useful and crossed the page (Count)
system.cpu.icache.prefetcher.power_state.pwrStateResidencyTicks::UNDEFINED  38922066000                       # Cumulative time (in ticks) in various power states (Tick)
system.cpu.icache.tags.tagsInUse           589.635600                       # Average ticks per tags in use ((Tick/Count))
system.cpu.icache.tags.totalRefs              3830277                       # Total number of references to valid blocks. (Count)
system.cpu.icache.tags.sampledRefs                614                       # Sample count of references to valid blocks. (Count)
system.cpu.icache.tags.avgRefs            6238.236156                       # Average number of references to valid blocks. ((Count/Count))
system.cpu.icache.tags.warmupTick               88000                       # The tick when the warmup percentage was hit. (Tick)
system.cpu.icache.tags.occupancies::cpu.inst   589.635600                       # Average occupied blocks per tick, per requestor ((Count/Tick))
system.cpu.icache.tags.avgOccs::cpu.inst     0.575816                       # Average percentage of cache occupancy ((Ratio/Tick))
system.cpu.icache.tags.avgOccs::total        0.575816                       # Average percentage of cache occupancy ((Ratio/Tick))
system.cpu.icache.tags.occupanciesTaskId::1024          590                       # Occupied blocks per task id (Count)
system.cpu.icache.tags.ageTaskId_1024::4          590                       # Occupied blocks per task id, per block age (Count)
system.cpu.icache.tags.ratioOccsTaskId::1024     0.576172                       # Ratio of occupied blocks and all blocks, per task id (Ratio)
system.cpu.icache.tags.tagAccesses           15322498                       # Number of tag accesses (Count)
system.cpu.icache.tags.dataAccesses          15322498                       # Number of data accesses (Count)
system.cpu.icache.tags.power_state.pwrStateResidencyTicks::UNDEFINED  38922066000                       # Cumulative time (in ticks) in various power states (Tick)
system.cpu.iew.idleCycles                           0                       # Number of cycles IEW is idle (Cycle)
system.cpu.iew.squashCycles                     13227                       # Number of cycles IEW is squashing (Cycle)
system.cpu.iew.blockCycles                     826963                       # Number of cycles IEW is blocking (Cycle)
system.cpu.iew.unblockCycles                   502314                       # Number of cycles IEW is unblocking (Cycle)
system.cpu.iew.dispatchedInsts               59887804                       # Number of instructions dispatched to IQ (Count)
system.cpu.iew.dispSquashedInsts                   10                       # Number of squashed instructions skipped by dispatch (Count)
system.cpu.iew.dispLoadInsts                 13546507                       # Number of dispatched load instructions (Count)
system.cpu.iew.dispStoreInsts                 6943459                       # Number of dispatched store instructions (Count)
system.cpu.iew.dispNonSpecInsts                    56                       # Number of dispatched non-speculative instructions (Count)
system.cpu.iew.iqFullEvents                    217188                       # Number of times the IQ has become full, causing a stall (Count)
system.cpu.iew.lsqFullEvents                   130344                       # Number of times the LSQ has become full, causing a stall (Count)
system.cpu.iew.memOrderViolationEvents            488                       # Number of memory order violations (Count)
[...]
system.mem_ctrl.dram.numWrites::writebacks       762646                       # Number of write requests responded to by this memory (Count)
system.mem_ctrl.dram.numWrites::total          762646                       # Number of write requests responded to by this memory (Count)
system.mem_ctrl.dram.bwRead::cpu.inst         1001386                       # Total read bandwidth from this memory ((Byte/Second))
system.mem_ctrl.dram.bwRead::cpu.data       349763140                       # Total read bandwidth from this memory ((Byte/Second))
system.mem_ctrl.dram.bwRead::cpu.dcache.prefetcher    687118305                       # Total read bandwidth from this memory ((Byte/Second))
system.mem_ctrl.dram.bwRead::l2cache.prefetcher    224016063                       # Total read bandwidth from this memory ((Byte/Second))
system.mem_ctrl.dram.bwRead::total         1261898893                       # Total read bandwidth from this memory ((Byte/Second))
system.mem_ctrl.dram.bwInstRead::cpu.inst      1001386                       # Instruction read bandwidth from this memory ((Byte/Second))
system.mem_ctrl.dram.bwInstRead::total        1001386                       # Instruction read bandwidth from this memory ((Byte/Second))
system.mem_ctrl.dram.bwWrite::writebacks   1254027574                       # Write bandwidth from this memory ((Byte/Second))
system.mem_ctrl.dram.bwWrite::total        1254027574                       # Write bandwidth from this memory ((Byte/Second))
system.mem_ctrl.dram.bwTotal::writebacks   1254027574                       # Total bandwidth to/from this memory ((Byte/Second))
system.mem_ctrl.dram.bwTotal::cpu.inst        1001386                       # Total bandwidth to/from this memory ((Byte/Second))
system.mem_ctrl.dram.bwTotal::cpu.data      349763140                       # Total bandwidth to/from this memory ((Byte/Second))
system.mem_ctrl.dram.bwTotal::cpu.dcache.prefetcher    687118305                       # Total bandwidth to/from this memory ((Byte/Second))
system.mem_ctrl.dram.bwTotal::l2cache.prefetcher    224016063                       # Total bandwidth to/from this memory ((Byte/Second))
system.mem_ctrl.dram.bwTotal::total        2515926467                       # Total bandwidth to/from this memory ((Byte/Second))
system.mem_ctrl.dram.readBursts                767433                       # Number of DRAM read bursts (Count)
system.mem_ctrl.dram.writeBursts               762615                       # Number of DRAM write bursts (Count)
system.mem_ctrl.dram.perBankRdBursts::0         48104                       # Per bank write bursts (Count)
system.mem_ctrl.dram.perBankRdBursts::1         48027                       # Per bank write bursts (Count)
system.mem_ctrl.dram.perBankRdBursts::2         48067                       # Per bank write bursts (Count)
system.mem_ctrl.dram.perBankRdBursts::3         47899                       # Per bank write bursts (Count)
system.mem_ctrl.dram.perBankRdBursts::4         47893                       # Per bank write bursts (Count)
system.mem_ctrl.dram.perBankRdBursts::5         47874                       # Per bank write bursts (Count)
system.mem_ctrl.dram.perBankRdBursts::6         47911                       # Per bank write bursts (Count)
system.mem_ctrl.dram.perBankRdBursts::7         47933                       # Per bank write bursts (Count)
system.mem_ctrl.dram.perBankRdBursts::8         47912                       # Per bank write bursts (Count)
system.mem_ctrl.dram.perBankRdBursts::9         47953                       # Per bank write bursts (Count)
system.mem_ctrl.dram.perBankRdBursts::10        47938                       # Per bank write bursts (Count)
system.mem_ctrl.dram.perBankRdBursts::11        47927                       # Per bank write bursts (Count)
system.mem_ctrl.dram.perBankRdBursts::12        48020                       # Per bank write bursts (Count)
system.mem_ctrl.dram.perBankRdBursts::13        47987                       # Per bank write bursts (Count)
system.mem_ctrl.dram.perBankRdBursts::14        47958                       # Per bank write bursts (Count)
system.mem_ctrl.dram.perBankRdBursts::15        48030                       # Per bank write bursts (Count)
system.mem_ctrl.dram.perBankWrBursts::0         47744                       # Per bank write bursts (Count)
system.mem_ctrl.dram.perBankWrBursts::1         47744                       # Per bank write bursts (Count)
system.mem_ctrl.dram.perBankWrBursts::2         47715                       # Per bank write bursts (Count)
system.mem_ctrl.dram.perBankWrBursts::3         47616                       # Per bank write bursts (Count)
system.mem_ctrl.dram.perBankWrBursts::4         47616                       # Per bank write bursts (Count)
system.mem_ctrl.dram.perBankWrBursts::5         47616                       # Per bank write bursts (Count)
system.mem_ctrl.dram.perBankWrBursts::6         47616                       # Per bank write bursts (Count)
system.mem_ctrl.dram.perBankWrBursts::7         47657                       # Per bank write bursts (Count)
system.mem_ctrl.dram.perBankWrBursts::8         47642                       # Per bank write bursts (Count)
system.mem_ctrl.dram.perBankWrBursts::9         47629                       # Per bank write bursts (Count)
system.mem_ctrl.dram.perBankWrBursts::10        47645                       # Per bank write bursts (Count)
system.mem_ctrl.dram.perBankWrBursts::11        47626                       # Per bank write bursts (Count)
system.mem_ctrl.dram.perBankWrBursts::12        47643                       # Per bank write bursts (Count)
system.mem_ctrl.dram.perBankWrBursts::13        47681                       # Per bank write bursts (Count)
system.mem_ctrl.dram.perBankWrBursts::14        47681                       # Per bank write bursts (Count)
system.mem_ctrl.dram.perBankWrBursts::15        47744                       # Per bank write bursts (Count)
system.mem_ctrl.dram.totQLat              24163797759                       # Total ticks spent queuing (Tick)
system.mem_ctrl.dram.totBusLat             3837165000                       # Total ticks spent in databus transfers (Tick)
system.mem_ctrl.dram.totMemAccLat         38553166509                       # Total ticks spent from burst creation until serviced by the DRAM (Tick)
system.mem_ctrl.dram.avgQLat                 31486.52                       # Average queueing delay per DRAM burst ((Tick/Count))
system.mem_ctrl.dram.avgBusLat                5000.00                       # Average bus latency per DRAM burst ((Tick/Count))
system.mem_ctrl.dram.avgMemAccLat            50236.52                       # Average memory access latency per DRAM burst ((Tick/Count))
system.mem_ctrl.dram.readRowHits               698072                       # Number of row buffer hits during reads (Count)
system.mem_ctrl.dram.writeRowHits              708814                       # Number of row buffer hits during writes (Count)
system.mem_ctrl.dram.readRowHitRate             90.96                       # Row buffer hit rate for reads (Ratio)
system.mem_ctrl.dram.writeRowHitRate            92.95                       # Row buffer hit rate for writes (Ratio)
system.mem_ctrl.dram.bytesPerActivate::samples       123159                       # Bytes accessed per row activation (Byte)
system.mem_ctrl.dram.bytesPerActivate::mean   795.084858                       # Bytes accessed per row activation (Byte)
system.mem_ctrl.dram.bytesPerActivate::gmean   626.512705                       # Bytes accessed per row activation (Byte)
system.mem_ctrl.dram.bytesPerActivate::stdev   348.071091                       # Bytes accessed per row activation (Byte)
system.mem_ctrl.dram.bytesPerActivate::0-127        11233      9.12%      9.12% # Bytes accessed per row activation (Byte)
system.mem_ctrl.dram.bytesPerActivate::128-255         6241      5.07%     14.19% # Bytes accessed per row activation (Byte)
system.mem_ctrl.dram.bytesPerActivate::256-383         8250      6.70%     20.89% # Bytes accessed per row activation (Byte)
system.mem_ctrl.dram.bytesPerActivate::384-511         1031      0.84%     21.72% # Bytes accessed per row activation (Byte)
system.mem_ctrl.dram.bytesPerActivate::512-639         2476      2.01%     23.73% # Bytes accessed per row activation (Byte)
system.mem_ctrl.dram.bytesPerActivate::640-767         3111      2.53%     26.26% # Bytes accessed per row activation (Byte)
system.mem_ctrl.dram.bytesPerActivate::768-895         6961      5.65%     31.91% # Bytes accessed per row activation (Byte)
system.mem_ctrl.dram.bytesPerActivate::896-1023        19547     15.87%     47.78% # Bytes accessed per row activation (Byte)
system.mem_ctrl.dram.bytesPerActivate::1024-1151        64309     52.22%    100.00% # Bytes accessed per row activation (Byte)
system.mem_ctrl.dram.bytesPerActivate::total       123159                       # Bytes accessed per row activation (Byte)
system.mem_ctrl.dram.bytesRead               49115712                       # Total bytes read (Byte)
system.mem_ctrl.dram.bytesWritten            48807360                       # Total bytes written (Byte)
system.mem_ctrl.dram.avgRdBW              1261.898893                       # Average DRAM read bandwidth in MiBytes/s ((Byte/Second))
system.mem_ctrl.dram.avgWrBW              1253.976600                       # Average DRAM write bandwidth in MiBytes/s ((Byte/Second))
system.mem_ctrl.dram.peakBW                  12800.00                       # Theoretical peak bandwidth in MiByte/s ((Byte/Second))
system.mem_ctrl.dram.busUtil                    19.66                       # Data bus utilization in percentage (Ratio)
system.mem_ctrl.dram.busUtilRead                 9.86                       # Data bus utilization in percentage for reads (Ratio)
system.mem_ctrl.dram.busUtilWrite                9.80                       # Data bus utilization in percentage for writes (Ratio)
system.mem_ctrl.dram.pageHitRate                91.95                       # Row buffer hit rate, read and write combined (Ratio)
system.mem_ctrl.dram.power_state.pwrStateResidencyTicks::UNDEFINED  38922066000                       # Cumulative time (in ticks) in various power states (Tick)
system.mem_ctrl.dram.rank0.actEnergy        439538400                       # Energy for activate commands per rank (pJ) (Joule)
system.mem_ctrl.dram.rank0.preEnergy        233612610                       # Energy for precharge commands per rank (pJ) (Joule)
system.mem_ctrl.dram.rank0.readEnergy      2739675120                       # Energy for read commands per rank (pJ) (Joule)
system.mem_ctrl.dram.rank0.writeEnergy     1990500840                       # Energy for write commands per rank (pJ) (Joule)
system.mem_ctrl.dram.rank0.refreshEnergy 3071970720.000000                       # Energy for refresh commands per rank (pJ) (Joule)
system.mem_ctrl.dram.rank0.actBackEnergy   9834166110                       # Energy for active background per rank (pJ) (Joule)
system.mem_ctrl.dram.rank0.preBackEnergy   6664670400                       # Energy for precharge background per rank (pJ) (Joule)
system.mem_ctrl.dram.rank0.actPowerDownEnergy            0                       # Energy for active power-down per rank (pJ) (Joule)
system.mem_ctrl.dram.rank0.prePowerDownEnergy            0                       # Energy for precharge power-down per rank (pJ) (Joule)
system.mem_ctrl.dram.rank0.selfRefreshEnergy            0                       # Energy for self refresh per rank (pJ) (Joule)
system.mem_ctrl.dram.rank0.totalEnergy    24974134200                       # Total energy per rank (pJ) (Joule)
system.mem_ctrl.dram.rank0.averagePower    641.644619                       # Core power per rank (mW) (Watt)
system.mem_ctrl.dram.rank0.totalIdleTime            0                       # Total Idle time Per DRAM Rank (Tick)
system.mem_ctrl.dram.rank0.pwrStateTime::IDLE  16970882389                       # Time in different power states (Tick)
system.mem_ctrl.dram.rank0.pwrStateTime::REF   1299480000                       # Time in different power states (Tick)
system.mem_ctrl.dram.rank0.pwrStateTime::SREF            0                       # Time in different power states (Tick)
system.mem_ctrl.dram.rank0.pwrStateTime::PRE_PDN            0                       # Time in different power states (Tick)
system.mem_ctrl.dram.rank0.pwrStateTime::ACT  20651703611                       # Time in different power states (Tick)
system.mem_ctrl.dram.rank0.pwrStateTime::ACT_PDN            0                       # Time in different power states (Tick)
system.mem_ctrl.dram.rank1.actEnergy        439831140                       # Energy for activate commands per rank (pJ) (Joule)
system.mem_ctrl.dram.rank1.preEnergy        233775795                       # Energy for precharge commands per rank (pJ) (Joule)
system.mem_ctrl.dram.rank1.readEnergy      2739796500                       # Energy for read commands per rank (pJ) (Joule)
system.mem_ctrl.dram.rank1.writeEnergy     1990339020                       # Energy for write commands per rank (pJ) (Joule)
system.mem_ctrl.dram.rank1.refreshEnergy 3071970720.000000                       # Energy for refresh commands per rank (pJ) (Joule)
system.mem_ctrl.dram.rank1.actBackEnergy   9830937060                       # Energy for active background per rank (pJ) (Joule)
system.mem_ctrl.dram.rank1.preBackEnergy   6667389600                       # Energy for precharge background per rank (pJ) (Joule)
system.mem_ctrl.dram.rank1.actPowerDownEnergy            0                       # Energy for active power-down per rank (pJ) (Joule)
system.mem_ctrl.dram.rank1.prePowerDownEnergy            0                       # Energy for precharge power-down per rank (pJ) (Joule)
system.mem_ctrl.dram.rank1.selfRefreshEnergy            0                       # Energy for self refresh per rank (pJ) (Joule)
system.mem_ctrl.dram.rank1.totalEnergy    24974039835                       # Total energy per rank (pJ) (Joule)
system.mem_ctrl.dram.rank1.averagePower    641.642194                       # Core power per rank (mW) (Watt)
system.mem_ctrl.dram.rank1.totalIdleTime            0                       # Total Idle time Per DRAM Rank (Tick)
system.mem_ctrl.dram.rank1.pwrStateTime::IDLE  16977763890                       # Time in different power states (Tick)
system.mem_ctrl.dram.rank1.pwrStateTime::REF   1299480000                       # Time in different power states (Tick)
system.mem_ctrl.dram.rank1.pwrStateTime::SREF            0                       # Time in different power states (Tick)
system.mem_ctrl.dram.rank1.pwrStateTime::PRE_PDN            0                       # Time in different power states (Tick)
system.mem_ctrl.dram.rank1.pwrStateTime::ACT  20644822110                       # Time in different power states (Tick)
system.mem_ctrl.dram.rank1.pwrStateTime::ACT_PDN            0                       # Time in different power states (Tick)
system.mem_ctrl.power_state.pwrStateResidencyTicks::UNDEFINED  38922066000                       # Cumulative time (in ticks) in various power states (Tick)
system.membus.transDist::ReadResp              554825                       # Transaction distribution (Count)
system.membus.transDist::WritebackDirty        762646                       # Transaction distribution (Count)
system.membus.transDist::CleanEvict               100                       # Transaction distribution (Count)
system.membus.transDist::ReadExReq             212608                       # Transaction distribution (Count)
system.membus.transDist::ReadExResp            212608                       # Transaction distribution (Count)
system.membus.transDist::ReadSharedReq         554825                       # Transaction distribution (Count)
system.membus.pktCount_system.l2cache.mem_side_port::system.mem_ctrl.port      2297612                       # Packet count per connected requestor and responder (Count)
system.membus.pktCount_system.l2cache.mem_side_port::total      2297612                       # Packet count per connected requestor and responder (Count)
system.membus.pktCount::total                 2297612                       # Packet count per connected requestor and responder (Count)
system.membus.pktSize_system.l2cache.mem_side_port::system.mem_ctrl.port     97925056                       # Cumulative packet size per connected requestor and responder (Byte)
system.membus.pktSize_system.l2cache.mem_side_port::total     97925056                       # Cumulative packet size per connected requestor and responder (Byte)
system.membus.pktSize::total                 97925056                       # Cumulative packet size per connected requestor and responder (Byte)
system.membus.snoops                                0                       # Total snoops (Count)
system.membus.snoopTraffic                          0                       # Total snoop traffic (Byte)
system.membus.snoopFanout::samples             767433                       # Request fanout histogram (Count)
system.membus.snoopFanout::mean                     0                       # Request fanout histogram (Count)
system.membus.snoopFanout::stdev                    0                       # Request fanout histogram (Count)
system.membus.snoopFanout::underflows               0      0.00%      0.00% # Request fanout histogram (Count)
system.membus.snoopFanout::0                   767433    100.00%    100.00% # Request fanout histogram (Count)
system.membus.snoopFanout::1                        0      0.00%    100.00% # Request fanout histogram (Count)
system.membus.snoopFanout::overflows                0      0.00%    100.00% # Request fanout histogram (Count)
system.membus.snoopFanout::min_value                0                       # Request fanout histogram (Count)
system.membus.snoopFanout::max_value                0                       # Request fanout histogram (Count)
system.membus.snoopFanout::total               767433                       # Request fanout histogram (Count)
system.membus.power_state.pwrStateResidencyTicks::UNDEFINED  38922066000                       # Cumulative time (in ticks) in various power states (Tick)
system.membus.reqLayer2.occupancy          4581508233                       # Layer occupancy (ticks) (Tick)
system.membus.reqLayer2.utilization               0.1                       # Layer utilization (Ratio)
system.membus.respLayer0.occupancy         3972310831                       # Layer occupancy (ticks) (Tick)
system.membus.respLayer0.utilization              0.1                       # Layer utilization (Ratio)
system.membus.snoop_filter.totRequests        1530179                       # Total number of requests made to the snoop filter. (Count)
system.membus.snoop_filter.hitSingleRequests       762746                       # Number of requests hitting in the snoop filter with a single holder of the requested data. (Count)
system.membus.snoop_filter.hitMultiRequests            0                       # Number of requests hitting in the snoop filter with multiple (>1) holders of the requested data. (Count)
system.membus.snoop_filter.totSnoops                0                       # Total number of snoops made to the snoop filter. (Count)
system.membus.snoop_filter.hitSingleSnoops            0                       # Number of snoops hitting in the snoop filter with a single holder of the requested data. (Count)
system.membus.snoop_filter.hitMultiSnoops            0                       # Number of snoops hitting in the snoop filter with multiple (>1) holders of the requested data. (Count)
system.workload.inst.arm                            0                       # number of arm instructions executed (Count)
system.workload.inst.quiesce                        0                       # number of quiesce instructions executed (Count)

---------- End Simulation Statistics   ----------
