
---------- Begin Simulation Statistics ----------
simSeconds                                   0.030964                       # Number of seconds simulated (Second)
simTicks                                  30964312000                       # Number of ticks simulated (Tick)
finalTick                                 30964312000                       # Number of ticks from beginning of simulation (restored from checkpoints and never reset) (Tick)
simFreq                                  1000000000000                       # The number of ticks per simulated second ((Tick/Second))
hostSeconds                                    279.05                       # Real time elapsed on the host (Second)
hostTickRate                                110961462                       # The number of ticks simulated per host second (ticks/s) ((Tick/Second))
hostMemory                                    8522448                       # Number of bytes of host memory used (Byte)
simInsts                                     50000001                       # Number of instructions simulated (Count)
simOps                                       94757850                       # Number of ops (including micro ops) simulated (Count)
hostInstRate                                   179176                       # Simulator instruction rate (inst/s) ((Count/Second))
hostOpRate                                     339567                       # Simulator op (including micro ops) rate (op/s) ((Count/Second))
system.clk_domain.clock                          1000                       # Clock period in ticks (Tick)
system.clk_domain.voltage_domain.voltage            1                       # Voltage in Volts (Volt)
system.cpu.numCycles                         30964328                       # Number of cpu cycles simulated (Cycle)
system.cpu.numWorkItemsStarted                      0                       # Number of work items this cpu started (Count)
system.cpu.numWorkItemsCompleted                    0                       # Number of work items this cpu completed (Count)
system.cpu.instsAdded                        99158014                       # Number of instructions added to the IQ (excludes non-spec) (Count)
system.cpu.nonSpecInstsAdded                      260                       # Number of non-speculative instructions added to the IQ (Count)
system.cpu.instsIssued                       97550142                       # Number of instructions issued (Count)
system.cpu.squashedInstsIssued                 165475                       # Number of squashed instructions issued (Count)
system.cpu.squashedInstsExamined              4400345                       # Number of squashed instructions iterated over during squash; mainly for profiling (Count)
system.cpu.squashedOperandsExamined           9122338                       # Number of squashed operands that are examined and possibly removed from graph (Count)
system.cpu.squashedNonSpecRemoved                 224                       # Number of squashed non-spec instructions that were removed (Count)
system.cpu.numIssuedDist::samples            30949983                       # Number of insts issued each cycle (Count)
system.cpu.numIssuedDist::mean               3.151864                       # Number of insts issued each cycle (Count)
system.cpu.numIssuedDist::stdev              1.893399                       # Number of insts issued each cycle (Count)
system.cpu.numIssuedDist::underflows                0      0.00%      0.00% # Number of insts issued each cycle (Count)
system.cpu.numIssuedDist::0                   4080657     13.18%     13.18% # Number of insts issued each cycle (Count)
system.cpu.numIssuedDist::1                   2823722      9.12%     22.31% # Number of insts issued each cycle (Count)
system.cpu.numIssuedDist::2                   4514947     14.59%     36.90% # Number of insts issued each cycle (Count)
system.cpu.numIssuedDist::3                   3566786     11.52%     48.42% # Number of insts issued each cycle (Count)
system.cpu.numIssuedDist::4                   8386357     27.10%     75.52% # Number of insts issued each cycle (Count)
system.cpu.numIssuedDist::5                   5087643     16.44%     91.96% # Number of insts issued each cycle (Count)
system.cpu.numIssuedDist::6                   1653373      5.34%     97.30% # Number of insts issued each cycle (Count)
system.cpu.numIssuedDist::7                    599697      1.94%     99.23% # Number of insts issued each cycle (Count)
system.cpu.numIssuedDist::8                    236801      0.77%    100.00% # Number of insts issued each cycle (Count)
system.cpu.numIssuedDist::overflows                 0      0.00%    100.00% # Number of insts issued each cycle (Count)
system.cpu.numIssuedDist::min_value                 0                       # Number of insts issued each cycle (Count)
system.cpu.numIssuedDist::max_value                 8                       # Number of insts issued each cycle (Count)
system.cpu.numIssuedDist::total              30949983                       # Number of insts issued each cycle (Count)
system.cpu.statFuBusy::No_OpClass                   0      0.00%      0.00% # attempts to use FU when none available (Count)
system.cpu.statFuBusy::IntAlu                10430029     97.41%     97.41% # attempts to use FU when none available (Count)
system.cpu.statFuBusy::IntMult                      0      0.00%     97.41% # attempts to use FU when none available (Count)
system.cpu.statFuBusy::IntDiv                       0      0.00%     97.41% # attempts to use FU when none available (Count)
system.cpu.statFuBusy::FloatAdd                     0      0.00%     97.41% # attempts to use FU when none available (Count)
system.cpu.statFuBusy::FloatCmp                     0      0.00%     97.41% # attempts to use FU when none available (Count)
system.cpu.statFuBusy::FloatCvt                     0      0.00%     97.41% # attempts to use FU when none available (Count)
system.cpu.statFuBusy::FloatMult                    0      0.00%     97.41% # attempts to use FU when none available (Count)
system.cpu.statFuBusy::FloatMultAcc                 0      0.00%     97.41% # attempts to use FU when none available (Count)
system.cpu.statFuBusy::FloatDiv                     0      0.00%     97.41% # attempts to use FU when none available (Count)
system.cpu.statFuBusy::FloatMisc                    0      0.00%     97.41% # attempts to use FU when none available (Count)
system.cpu.statFuBusy::FloatSqrt                    0      0.00%     97.41% # attempts to use FU when none available (Count)
system.cpu.statFuBusy::SimdAdd                      0      0.00%     97.41% # attempts to use FU when none available (Count)
system.cpu.statFuBusy::SimdAddAcc                   0      0.00%     97.41% # attempts to use FU when none available (Count)
system.cpu.statFuBusy::SimdAlu                     13      0.00%     97.41% # attempts to use FU when none available (Count)
system.cpu.statFuBusy::SimdCmp                      0      0.00%     97.41% # attempts to use FU when none available (Count)
system.cpu.statFuBusy::SimdCvt                      9      0.00%     97.41% # attempts to use FU when none available (Count)
system.cpu.statFuBusy::SimdMisc                     0      0.00%     97.41% # attempts to use FU when none available (Count)
system.cpu.statFuBusy::SimdMult                     0      0.00%     97.41% # attempts to use FU when none available (Count)
system.cpu.statFuBusy::SimdMultAcc                  0      0.00%     97.41% # attempts to use FU when none available (Count)
system.cpu.statFuBusy::SimdShift                    0      0.00%     97.41% # attempts to use FU when none available (Count)
system.cpu.statFuBusy::SimdShiftAcc                 0      0.00%     97.41% # attempts to use FU when none available (Count)
system.cpu.statFuBusy::SimdDiv                      0      0.00%     97.41% # attempts to use FU when none available (Count)
system.cpu.statFuBusy::SimdSqrt                     0      0.00%     97.41% # attempts to use FU when none available (Count)
system.cpu.statFuBusy::SimdFloatAdd                 0      0.00%     97.41% # attempts to use FU when none available (Count)
system.cpu.statFuBusy::SimdFloatAlu                 0      0.00%     97.41% # attempts to use FU when none available (Count)
system.cpu.statFuBusy::SimdFloatCmp                 0      0.00%     97.41% # attempts to use FU when none available (Count)
system.cpu.statFuBusy::SimdFloatCvt                 0      0.00%     97.41% # attempts to use FU when none available (Count)
system.cpu.statFuBusy::SimdFloatDiv                 0      0.00%     97.41% # attempts to use FU when none available (Count)
system.cpu.statFuBusy::SimdFloatMisc                0      0.00%     97.41% # attempts to use FU when none available (Count)
system.cpu.statFuBusy::SimdFloatMult                0      0.00%     97.41% # attempts to use FU when none available (Count)
system.cpu.statFuBusy::SimdFloatMultAcc             0      0.00%     97.41% # attempts to use FU when none available (Count)
system.cpu.statFuBusy::SimdFloatSqrt                0      0.00%     97.41% # attempts to use FU when none available (Count)
system.cpu.statFuBusy::SimdReduceAdd                0      0.00%     97.41% # attempts to use FU when none available (Count)
system.cpu.statFuBusy::SimdReduceAlu                0      0.00%     97.41% # attempts to use FU when none available (Count)
system.cpu.statFuBusy::SimdReduceCmp                0      0.00%     97.41% # attempts to use FU when none available (Count)
system.cpu.statFuBusy::SimdFloatReduceAdd            0      0.00%     97.41% # attempts to use FU when none available (Count)
system.cpu.statFuBusy::SimdFloatReduceCmp            0      0.00%     97.41% # attempts to use FU when none available (Count)
system.cpu.statFuBusy::SimdAes                      0      0.00%     97.41% # attempts to use FU when none available (Count)
system.cpu.statFuBusy::SimdAesMix                   0      0.00%     97.41% # attempts to use FU when none available (Count)
system.cpu.statFuBusy::SimdSha1Hash                 0      0.00%     97.41% # attempts to use FU when none available (Count)
system.cpu.statFuBusy::SimdSha1Hash2                0      0.00%     97.41% # attempts to use FU when none available (Count)
system.cpu.statFuBusy::SimdSha256Hash               0      0.00%     97.41% # attempts to use FU when none available (Count)
system.cpu.statFuBusy::SimdSha256Hash2              0      0.00%     97.41% # attempts to use FU when none available (Count)
system.cpu.statFuBusy::SimdShaSigma2                0      0.00%     97.41% # attempts to use FU when none available (Count)
system.cpu.statFuBusy::SimdShaSigma3                0      0.00%     97.41% # attempts to use FU when none available (Count)
system.cpu.statFuBusy::SimdPredAlu                  0      0.00%     97.41% # attempts to use FU when none available (Count)
system.cpu.statFuBusy::MemRead                 148875      1.39%     98.80% # attempts to use FU when none available (Count)
system.cpu.statFuBusy::MemWrite                128470      1.20%    100.00% # attempts to use FU when none available (Count)
system.cpu.statFuBusy::FloatMemRead                20      0.00%    100.00% # attempts to use FU when none available (Count)
system.cpu.statFuBusy::FloatMemWrite               58      0.00%    100.00% # attempts to use FU when none available (Count)
system.cpu.statFuBusy::IprAccess                    0      0.00%    100.00% # attempts to use FU when none available (Count)
system.cpu.statFuBusy::InstPrefetch                 0      0.00%    100.00% # attempts to use FU when none available (Count)
system.cpu.statIssuedInstType_0::No_OpClass       221324      0.23%      0.23% # Number of instructions issued per FU type, per thread (Count)
system.cpu.statIssuedInstType_0::IntAlu      78315859     80.28%     80.51% # Number of instructions issued per FU type, per thread (Count)
system.cpu.statIssuedInstType_0::IntMult       234294      0.24%     80.75% # Number of instructions issued per FU type, per thread (Count)
system.cpu.statIssuedInstType_0::IntDiv            32      0.00%     80.75% # Number of instructions issued per FU type, per thread (Count)
system.cpu.statIssuedInstType_0::FloatAdd        50924      0.05%     80.80% # Number of instructions issued per FU type, per thread (Count)
system.cpu.statIssuedInstType_0::FloatCmp            0      0.00%     80.80% # Number of instructions issued per FU type, per thread (Count)
system.cpu.statIssuedInstType_0::FloatCvt            0      0.00%     80.80% # Number of instructions issued per FU type, per thread (Count)
system.cpu.statIssuedInstType_0::FloatMult            0      0.00%     80.80% # Number of instructions issued per FU type, per thread (Count)
system.cpu.statIssuedInstType_0::FloatMultAcc            0      0.00%     80.80% # Number of instructions issued per FU type, per thread (Count)
system.cpu.statIssuedInstType_0::FloatDiv            0      0.00%     80.80% # Number of instructions issued per FU type, per thread (Count)
system.cpu.statIssuedInstType_0::FloatMisc            0      0.00%     80.80% # Number of instructions issued per FU type, per thread (Count)
system.cpu.statIssuedInstType_0::FloatSqrt            0      0.00%     80.80% # Number of instructions issued per FU type, per thread (Count)
system.cpu.statIssuedInstType_0::SimdAdd            0      0.00%     80.80% # Number of instructions issued per FU type, per thread (Count)
system.cpu.statIssuedInstType_0::SimdAddAcc            0      0.00%     80.80% # Number of instructions issued per FU type, per thread (Count)
system.cpu.statIssuedInstType_0::SimdAlu          172      0.00%     80.80% # Number of instructions issued per FU type, per thread (Count)
system.cpu.statIssuedInstType_0::SimdCmp            0      0.00%     80.80% # Number of instructions issued per FU type, per thread (Count)
system.cpu.statIssuedInstType_0::SimdCvt       118209      0.12%     80.92% # Number of instructions issued per FU type, per thread (Count)
system.cpu.statIssuedInstType_0::SimdMisc       473763      0.49%     81.41% # Number of instructions issued per FU type, per thread (Count)
system.cpu.statIssuedInstType_0::SimdMult            0      0.00%     81.41% # Number of instructions issued per FU type, per thread (Count)
system.cpu.statIssuedInstType_0::SimdMultAcc            0      0.00%     81.41% # Number of instructions issued per FU type, per thread (Count)
system.cpu.statIssuedInstType_0::SimdShift            0      0.00%     81.41% # Number of instructions issued per FU type, per thread (Count)
system.cpu.statIssuedInstType_0::SimdShiftAcc            0      0.00%     81.41% # Number of instructions issued per FU type, per thread (Count)
system.cpu.statIssuedInstType_0::SimdDiv            0      0.00%     81.41% # Number of instructions issued per FU type, per thread (Count)
system.cpu.statIssuedInstType_0::SimdSqrt            0      0.00%     81.41% # Number of instructions issued per FU type, per thread (Count)
system.cpu.statIssuedInstType_0::SimdFloatAdd            0      0.00%     81.41% # Number of instructions issued per FU type, per thread (Count)
system.cpu.statIssuedInstType_0::SimdFloatAlu            0      0.00%     81.41% # Number of instructions issued per FU type, per thread (Count)
system.cpu.statIssuedInstType_0::SimdFloatCmp            0      0.00%     81.41% # Number of instructions issued per FU type, per thread (Count)
system.cpu.statIssuedInstType_0::SimdFloatCvt            0      0.00%     81.41% # Number of instructions issued per FU type, per thread (Count)
system.cpu.statIssuedInstType_0::SimdFloatDiv            0      0.00%     81.41% # Number of instructions issued per FU type, per thread (Count)
system.cpu.statIssuedInstType_0::SimdFloatMisc            0      0.00%     81.41% # Number of instructions issued per FU type, per thread (Count)
system.cpu.statIssuedInstType_0::SimdFloatMult            0      0.00%     81.41% # Number of instructions issued per FU type, per thread (Count)
system.cpu.statIssuedInstType_0::SimdFloatMultAcc            0      0.00%     81.41% # Number of instructions issued per FU type, per thread (Count)
system.cpu.statIssuedInstType_0::SimdFloatSqrt            0      0.00%     81.41% # Number of instructions issued per FU type, per thread (Count)
system.cpu.statIssuedInstType_0::SimdReduceAdd            0      0.00%     81.41% # Number of instructions issued per FU type, per thread (Count)
system.cpu.statIssuedInstType_0::SimdReduceAlu            0      0.00%     81.41% # Number of instructions issued per FU type, per thread (Count)
system.cpu.statIssuedInstType_0::SimdReduceCmp            0      0.00%     81.41% # Number of instructions issued per FU type, per thread (Count)
system.cpu.statIssuedInstType_0::SimdFloatReduceAdd            0      0.00%     81.41% # Number of instructions issued per FU type, per thread (Count)
system.cpu.statIssuedInstType_0::SimdFloatReduceCmp            0      0.00%     81.41% # Number of instructions issued per FU type, per thread (Count)
system.cpu.statIssuedInstType_0::SimdAes            0      0.00%     81.41% # Number of instructions issued per FU type, per thread (Count)
system.cpu.statIssuedInstType_0::SimdAesMix            0      0.00%     81.41% # Number of instructions issued per FU type, per thread (Count)
system.cpu.statIssuedInstType_0::SimdSha1Hash            0      0.00%     81.41% # Number of instructions issued per FU type, per thread (Count)
system.cpu.statIssuedInstType_0::SimdSha1Hash2            0      0.00%     81.41% # Number of instructions issued per FU type, per thread (Count)
system.cpu.statIssuedInstType_0::SimdSha256Hash            0      0.00%     81.41% # Number of instructions issued per FU type, per thread (Count)
system.cpu.statIssuedInstType_0::SimdSha256Hash2            0      0.00%     81.41% # Number of instructions issued per FU type, per thread (Count)
system.cpu.statIssuedInstType_0::SimdShaSigma2            0      0.00%     81.41% # Number of instructions issued per FU type, per thread (Count)
system.cpu.statIssuedInstType_0::SimdShaSigma3            0      0.00%     81.41% # Number of instructions issued per FU type, per thread (Count)
system.cpu.statIssuedInstType_0::SimdPredAlu            0      0.00%     81.41% # Number of instructions issued per FU type, per thread (Count)
system.cpu.statIssuedInstType_0::MemRead     10919174     11.19%     92.60% # Number of instructions issued per FU type, per thread (Count)
system.cpu.statIssuedInstType_0::MemWrite      7086526      7.26%     99.87% # Number of instructions issued per FU type, per thread (Count)
system.cpu.statIssuedInstType_0::FloatMemRead       129516      0.13%    100.00% # Number of instructions issued per FU type, per thread (Count)
system.cpu.statIssuedInstType_0::FloatMemWrite          349      0.00%    100.00% # Number of instructions issued per FU type, per thread (Count)
system.cpu.statIssuedInstType_0::IprAccess            0      0.00%    100.00% # Number of instructions issued per FU type, per thread (Count)
system.cpu.statIssuedInstType_0::InstPrefetch            0      0.00%    100.00% # Number of instructions issued per FU type, per thread (Count)
system.cpu.statIssuedInstType_0::total       97550142                       # Number of instructions issued per FU type, per thread (Count)
system.cpu.issueRate                         3.150404                       # Inst issue rate ((Count/Cycle))
system.cpu.fuBusy                            10707474                       # FU busy when requested (Count)
system.cpu.fuBusyRate                        0.109764                       # FU busy rate (busy events/executed inst) ((Count/Count))
system.cpu.intInstQueueReads                235275669                       # Number of integer instruction queue reads (Count)
system.cpu.intInstQueueWrites               102661108                       # Number of integer instruction queue writes (Count)
system.cpu.intInstQueueWakeupAccesses        96487335                       # Number of integer instruction queue wakeup accesses (Count)
system.cpu.fpInstQueueReads                   1647539                       # Number of floating instruction queue reads (Count)
system.cpu.fpInstQueueWrites                   898980                       # Number of floating instruction queue writes (Count)
system.cpu.fpInstQueueWakeupAccesses           812191                       # Number of floating instruction queue wakeup accesses (Count)
system.cpu.vecInstQueueReads                        0                       # Number of vector instruction queue reads (Count)
system.cpu.vecInstQueueWrites                       0                       # Number of vector instruction queue writes (Count)
system.cpu.vecInstQueueWakeupAccesses               0                       # Number of vector instruction queue wakeup accesses (Count)
system.cpu.intAluAccesses                   107212480                       # Number of integer alu accesses (Count)
system.cpu.fpAluAccesses                       823812                       # Number of floating point alu accesses (Count)
system.cpu.vecAluAccesses                           0                       # Number of vector alu accesses (Count)
system.cpu.numInsts                          97357827                       # Number of executed instructions (Count)
system.cpu.numLoadInsts                      10996315                       # Number of load instructions executed (Count)
system.cpu.numSquashedInsts                    192307                       # Number of squashed instructions skipped in execute (Count)
system.cpu.numSwp                                   0                       # Number of swp insts executed (Count)
system.cpu.numNop                                   0                       # Number of nop insts executed (Count)
system.cpu.numRefs                           18056744                       # Number of memory reference insts executed (Count)
system.cpu.numBranches                       12017496                       # Number of branches executed (Count)
system.cpu.numStoreInsts                      7060429                       # Number of stores executed (Count)
system.cpu.numRate                           3.144193                       # Inst execution rate ((Count/Cycle))
system.cpu.timesIdled                             313                       # Number of times that the entire CPU went into an idle state and unscheduled itself (Count)
system.cpu.idleCycles                           14345                       # Total number of cycles that the CPU has spent unscheduled due to idling (Cycle)
system.cpu.committedInsts                    50000001                       # Number of Instructions Simulated (Count)
system.cpu.committedOps                      94757850                       # Number of Ops (including micro ops) Simulated (Count)
system.cpu.cpi                               0.619287                       # CPI: Cycles Per Instruction ((Cycle/Count))
system.cpu.totalCpi                          0.619287                       # CPI: Total CPI of All Threads ((Cycle/Count))
system.cpu.ipc                               1.614761                       # IPC: Instructions Per Cycle ((Count/Cycle))
system.cpu.totalIpc                          1.614761                       # IPC: Total IPC of All Threads ((Count/Cycle))
system.cpu.intRegfileReads                  120733651                       # Number of integer regfile reads (Count)
system.cpu.intRegfileWrites                  67296103                       # Number of integer regfile writes (Count)
system.cpu.fpRegfileReads                     1337001                       # Number of floating regfile reads (Count)
system.cpu.fpRegfileWrites                     694257                       # Number of floating regfile writes (Count)
system.cpu.ccRegfileReads                    61502461                       # number of cc regfile reads (Count)
system.cpu.ccRegfileWrites                   31438343                       # number of cc regfile writes (Count)
system.cpu.miscRegfileReads                  41661199                       # number of misc regfile reads (Count)
system.cpu.MemDepUnit__0.insertedLoads       11132877                       # Number of loads inserted to the mem dependence unit. (Count)
system.cpu.MemDepUnit__0.insertedStores       7152704                       # Number of stores inserted to the mem dependence unit. (Count)
system.cpu.MemDepUnit__0.conflictingLoads      1520740                       # Number of conflicting loads. (Count)
system.cpu.MemDepUnit__0.conflictingStores       562240                       # Number of conflicting stores. (Count)
system.cpu.MemDepUnit__1.insertedLoads              0                       # Number of loads inserted to the mem dependence unit. (Count)
system.cpu.MemDepUnit__1.insertedStores             0                       # Number of stores inserted to the mem dependence unit. (Count)
system.cpu.MemDepUnit__1.conflictingLoads            0                       # Number of conflicting loads. (Count)
system.cpu.MemDepUnit__1.conflictingStores            0                       # Number of conflicting stores. (Count)
system.cpu.MemDepUnit__2.insertedLoads              0                       # Number of loads inserted to the mem dependence unit. (Count)
system.cpu.MemDepUnit__2.insertedStores             0                       # Number of stores inserted to the mem dependence unit. (Count)
system.cpu.MemDepUnit__2.conflictingLoads            0                       # Number of conflicting loads. (Count)
system.cpu.MemDepUnit__2.conflictingStores            0                       # Number of conflicting stores. (Count)
system.cpu.MemDepUnit__3.insertedLoads              0                       # Number of loads inserted to the mem dependence unit. (Count)
system.cpu.MemDepUnit__3.insertedStores             0                       # Number of stores inserted to the mem dependence unit. (Count)
system.cpu.MemDepUnit__3.conflictingLoads            0                       # Number of conflicting loads. (Count)
system.cpu.MemDepUnit__3.conflictingStores            0                       # Number of conflicting stores. (Count)
system.cpu.branchPred.lookups                12653383                       # Number of BP lookups (Count)
system.cpu.branchPred.condPredicted          10273276                       # Number of conditional branches predicted (Count)
system.cpu.branchPred.condIncorrect             55556                       # Number of conditional branches incorrect (Count)
system.cpu.branchPred.BTBLookups              4438516                       # Number of BTB lookups (Count)
system.cpu.branchPred.BTBHits                 4435221                       # Number of BTB hits (Count)
system.cpu.branchPred.BTBHitRatio            0.999258                       # BTB Hit Ratio (Ratio)
system.cpu.branchPred.RASUsed                  526464                       # Number of times the RAS was used to get a target. (Count)
system.cpu.branchPred.RASIncorrect                  9                       # Number of incorrect RAS predictions. (Count)
system.cpu.branchPred.indirectLookups          140718                       # Number of indirect predictor lookups. (Count)
system.cpu.branchPred.indirectHits             140472                       # Number of indirect target hits. (Count)
system.cpu.branchPred.indirectMisses              246                       # Number of indirect misses. (Count)
system.cpu.branchPred.indirectMispredicted           87                       # Number of mispredicted indirect branches. (Count)
system.cpu.commit.commitSquashedInsts         4391553                       # The number of squashed insts skipped by commit (Count)
system.cpu.commit.commitNonSpecStalls              36                       # The number of times commit has been forced to stall to communicate backwards (Count)
system.cpu.commit.branchMispredicts             55250                       # The number of times a branch was mispredicted (Count)
system.cpu.commit.numCommittedDist::samples     30374949                       # Number of insts commited each cycle (Count)
system.cpu.commit.numCommittedDist::mean     3.119605                       # Number of insts commited each cycle (Count)
system.cpu.commit.numCommittedDist::stdev     3.419413                       # Number of insts commited each cycle (Count)
system.cpu.commit.numCommittedDist::underflows            0      0.00%      0.00% # Number of insts commited each cycle (Count)
system.cpu.commit.numCommittedDist::0        12648651     41.64%     41.64% # Number of insts commited each cycle (Count)
system.cpu.commit.numCommittedDist::1         2518792      8.29%     49.93% # Number of insts commited each cycle (Count)
system.cpu.commit.numCommittedDist::2         2044339      6.73%     56.66% # Number of insts commited each cycle (Count)
system.cpu.commit.numCommittedDist::3         1876186      6.18%     62.84% # Number of insts commited each cycle (Count)
system.cpu.commit.numCommittedDist::4         1019314      3.36%     66.20% # Number of insts commited each cycle (Count)
system.cpu.commit.numCommittedDist::5          669905      2.21%     68.40% # Number of insts commited each cycle (Count)
system.cpu.commit.numCommittedDist::6          586609      1.93%     70.33% # Number of insts commited each cycle (Count)
system.cpu.commit.numCommittedDist::7          513837      1.69%     72.03% # Number of insts commited each cycle (Count)
system.cpu.commit.numCommittedDist::8         8497316     27.97%    100.00% # Number of insts commited each cycle (Count)
system.cpu.commit.numCommittedDist::overflows            0      0.00%    100.00% # Number of insts commited each cycle (Count)
system.cpu.commit.numCommittedDist::min_value            0                       # Number of insts commited each cycle (Count)
system.cpu.commit.numCommittedDist::max_value            8                       # Number of insts commited each cycle (Count)
system.cpu.commit.numCommittedDist::total     30374949                       # Number of insts commited each cycle (Count)
system.cpu.commit.instsCommitted             50000001                       # Number of instructions committed (Count)
system.cpu.commit.opsCommitted               94757850                       # Number of ops (including micro ops) committed (Count)
system.cpu.commit.memRefs                    17616402                       # Number of memory references committed (Count)
system.cpu.commit.loads                      10653362                       # Number of loads committed (Count)
system.cpu.commit.amos                              0                       # Number of atomic instructions committed (Count)
system.cpu.commit.membars                          24                       # Number of memory barriers committed (Count)
system.cpu.commit.branches                   11816953                       # Number of branches committed (Count)
system.cpu.commit.vectorInstructions                0                       # Number of committed Vector instructions. (Count)
system.cpu.commit.floating                     797407                       # Number of committed floating point instructions. (Count)
system.cpu.commit.integer                    93840958                       # Number of committed integer instructions. (Count)
system.cpu.commit.functionCalls                489611                       # Number of function calls committed. (Count)
system.cpu.commit.committedInstType_0::No_OpClass       206366      0.22%      0.22% # Class of committed instruction (Count)
system.cpu.commit.committedInstType_0::IntAlu     76071906     80.28%     80.50% # Class of committed instruction (Count)
system.cpu.commit.committedInstType_0::IntMult       230150      0.24%     80.74% # Class of committed instruction (Count)
system.cpu.commit.committedInstType_0::IntDiv           28      0.00%     80.74% # Class of committed instruction (Count)
system.cpu.commit.committedInstType_0::FloatAdd        50759      0.05%     80.79% # Class of committed instruction (Count)
system.cpu.commit.committedInstType_0::FloatCmp            0      0.00%     80.79% # Class of committed instruction (Count)
system.cpu.commit.committedInstType_0::FloatCvt            0      0.00%     80.79% # Class of committed instruction (Count)
system.cpu.commit.committedInstType_0::FloatMult            0      0.00%     80.79% # Class of committed instruction (Count)
system.cpu.commit.committedInstType_0::FloatMultAcc            0      0.00%     80.79% # Class of committed instruction (Count)
system.cpu.commit.committedInstType_0::FloatDiv            0      0.00%     80.79% # Class of committed instruction (Count)
system.cpu.commit.committedInstType_0::FloatMisc            0      0.00%     80.79% # Class of committed instruction (Count)
system.cpu.commit.committedInstType_0::FloatSqrt            0      0.00%     80.79% # Class of committed instruction (Count)
system.cpu.commit.committedInstType_0::SimdAdd            0      0.00%     80.79% # Class of committed instruction (Count)
system.cpu.commit.committedInstType_0::SimdAddAcc            0      0.00%     80.79% # Class of committed instruction (Count)
system.cpu.commit.committedInstType_0::SimdAlu           98      0.00%     80.79% # Class of committed instruction (Count)
system.cpu.commit.committedInstType_0::SimdCmp            0      0.00%     80.79% # Class of committed instruction (Count)
system.cpu.commit.committedInstType_0::SimdCvt       113412      0.12%     80.91% # Class of committed instruction (Count)
system.cpu.commit.committedInstType_0::SimdMisc       468729      0.49%     81.41% # Class of committed instruction (Count)
system.cpu.commit.committedInstType_0::SimdMult            0      0.00%     81.41% # Class of committed instruction (Count)
system.cpu.commit.committedInstType_0::SimdMultAcc            0      0.00%     81.41% # Class of committed instruction (Count)
system.cpu.commit.committedInstType_0::SimdShift            0      0.00%     81.41% # Class of committed instruction (Count)
system.cpu.commit.committedInstType_0::SimdShiftAcc            0      0.00%     81.41% # Class of committed instruction (Count)
system.cpu.commit.committedInstType_0::SimdDiv            0      0.00%     81.41% # Class of committed instruction (Count)
system.cpu.commit.committedInstType_0::SimdSqrt            0      0.00%     81.41% # Class of committed instruction (Count)
system.cpu.commit.committedInstType_0::SimdFloatAdd            0      0.00%     81.41% # Class of committed instruction (Count)
system.cpu.commit.committedInstType_0::SimdFloatAlu            0      0.00%     81.41% # Class of committed instruction (Count)
system.cpu.commit.committedInstType_0::SimdFloatCmp            0      0.00%     81.41% # Class of committed instruction (Count)
system.cpu.commit.committedInstType_0::SimdFloatCvt            0      0.00%     81.41% # Class of committed instruction (Count)
system.cpu.commit.committedInstType_0::SimdFloatDiv            0      0.00%     81.41% # Class of committed instruction (Count)
system.cpu.commit.committedInstType_0::SimdFloatMisc            0      0.00%     81.41% # Class of committed instruction (Count)
system.cpu.commit.committedInstType_0::SimdFloatMult            0      0.00%     81.41% # Class of committed instruction (Count)
system.cpu.commit.committedInstType_0::SimdFloatMultAcc            0      0.00%     81.41% # Class of committed instruction (Count)
system.cpu.commit.committedInstType_0::SimdFloatSqrt            0      0.00%     81.41% # Class of committed instruction (Count)
system.cpu.commit.committedInstType_0::SimdReduceAdd            0      0.00%     81.41% # Class of committed instruction (Count)
system.cpu.commit.committedInstType_0::SimdReduceAlu            0      0.00%     81.41% # Class of committed instruction (Count)
system.cpu.commit.committedInstType_0::SimdReduceCmp            0      0.00%     81.41% # Class of committed instruction (Count)
system.cpu.commit.committedInstType_0::SimdFloatReduceAdd            0      0.00%     81.41% # Class of committed instruction (Count)
system.cpu.commit.committedInstType_0::SimdFloatReduceCmp            0      0.00%     81.41% # Class of committed instruction (Count)
system.cpu.commit.committedInstType_0::SimdAes            0      0.00%     81.41% # Class of committed instruction (Count)
system.cpu.commit.committedInstType_0::SimdAesMix            0      0.00%     81.41% # Class of committed instruction (Count)
system.cpu.commit.committedInstType_0::SimdSha1Hash            0      0.00%     81.41% # Class of committed instruction (Count)
system.cpu.commit.committedInstType_0::SimdSha1Hash2            0      0.00%     81.41% # Class of committed instruction (Count)
system.cpu.commit.committedInstType_0::SimdSha256Hash            0      0.00%     81.41% # Class of committed instruction (Count)
system.cpu.commit.committedInstType_0::SimdSha256Hash2            0      0.00%     81.41% # Class of committed instruction (Count)
system.cpu.commit.committedInstType_0::SimdShaSigma2            0      0.00%     81.41% # Class of committed instruction (Count)
system.cpu.commit.committedInstType_0::SimdShaSigma3            0      0.00%     81.41% # Class of committed instruction (Count)
system.cpu.commit.committedInstType_0::SimdPredAlu            0      0.00%     81.41% # Class of committed instruction (Count)
system.cpu.commit.committedInstType_0::MemRead     10539958     11.12%     92.53% # Class of committed instruction (Count)
system.cpu.commit.committedInstType_0::MemWrite      6962800      7.35%     99.88% # Class of committed instruction (Count)
system.cpu.commit.committedInstType_0::FloatMemRead       113404      0.12%    100.00% # Class of committed instruction (Count)
system.cpu.commit.committedInstType_0::FloatMemWrite          240      0.00%    100.00% # Class of committed instruction (Count)
system.cpu.commit.committedInstType_0::IprAccess            0      0.00%    100.00% # Class of committed instruction (Count)
system.cpu.commit.committedInstType_0::InstPrefetch            0      0.00%    100.00% # Class of committed instruction (Count)
system.cpu.commit.committedInstType_0::total     94757850                       # Class of committed instruction (Count)
system.cpu.commit.commitEligibleSamples       8497316                       # number cycles where commit BW limit reached (Cycle)
system.cpu.dcache.demandHits::cpu.data       15073312                       # number of demand (read+write) hits (Count)
system.cpu.dcache.demandHits::total          15073312                       # number of demand (read+write) hits (Count)
system.cpu.dcache.overallHits::cpu.data      15073312                       # number of overall hits (Count)
system.cpu.dcache.overallHits::total         15073312                       # number of overall hits (Count)
system.cpu.dcache.demandMisses::cpu.data        50858                       # number of demand (read+write) misses (Count)
system.cpu.dcache.demandMisses::total           50858                       # number of demand (read+write) misses (Count)
system.cpu.dcache.overallMisses::cpu.data        50858                       # number of overall misses (Count)
system.cpu.dcache.overallMisses::total          50858                       # number of overall misses (Count)
system.cpu.dcache.demandMissLatency::cpu.data   3830197000                       # number of demand (read+write) miss ticks (Tick)
system.cpu.dcache.demandMissLatency::total   3830197000                       # number of demand (read+write) miss ticks (Tick)
system.cpu.dcache.overallMissLatency::cpu.data   3830197000                       # number of overall miss ticks (Tick)
system.cpu.dcache.overallMissLatency::total   3830197000                       # number of overall miss ticks (Tick)
system.cpu.dcache.demandAccesses::cpu.data     15124170                       # number of demand (read+write) accesses (Count)
system.cpu.dcache.demandAccesses::total      15124170                       # number of demand (read+write) accesses (Count)
system.cpu.dcache.overallAccesses::cpu.data     15124170                       # number of overall (read+write) accesses (Count)
system.cpu.dcache.overallAccesses::total     15124170                       # number of overall (read+write) accesses (Count)
system.cpu.dcache.demandMissRate::cpu.data     0.003363                       # miss rate for demand accesses (Ratio)
system.cpu.dcache.demandMissRate::total      0.003363                       # miss rate for demand accesses (Ratio)
system.cpu.dcache.overallMissRate::cpu.data     0.003363                       # miss rate for overall accesses (Ratio)
system.cpu.dcache.overallMissRate::total     0.003363                       # miss rate for overall accesses (Ratio)
system.cpu.dcache.demandAvgMissLatency::cpu.data 75311.593063                       # average overall miss latency in ticks ((Tick/Count))
system.cpu.dcache.demandAvgMissLatency::total 75311.593063                       # average overall miss latency in ticks ((Tick/Count))
system.cpu.dcache.overallAvgMissLatency::cpu.data 75311.593063                       # average overall miss latency ((Tick/Count))
system.cpu.dcache.overallAvgMissLatency::total 75311.593063                       # average overall miss latency ((Tick/Count))
system.cpu.dcache.blockedCycles::no_mshrs        20076                       # number of cycles access was blocked (Cycle)
system.cpu.dcache.blockedCycles::no_targets            0                       # number of cycles access was blocked (Cycle)
system.cpu.dcache.blockedCauses::no_mshrs          646                       # number of times access was blocked (Count)
system.cpu.dcache.blockedCauses::no_targets            0                       # number of times access was blocked (Count)
system.cpu.dcache.avgBlocked::no_mshrs      31.077399                       # average number of cycles each access was blocked ((Cycle/Count))
system.cpu.dcache.avgBlocked::no_targets          nan                       # average number of cycles each access was blocked ((Cycle/Count))
system.cpu.dcache.writebacks::writebacks        61429                       # number of writebacks (Count)
system.cpu.dcache.writebacks::total             61429                       # number of writebacks (Count)
system.cpu.dcache.demandMshrHits::cpu.data        10920                       # number of demand (read+write) MSHR hits (Count)
system.cpu.dcache.demandMshrHits::total         10920                       # number of demand (read+write) MSHR hits (Count)
system.cpu.dcache.overallMshrHits::cpu.data        10920                       # number of overall MSHR hits (Count)
system.cpu.dcache.overallMshrHits::total        10920                       # number of overall MSHR hits (Count)
system.cpu.dcache.demandMshrMisses::cpu.data        39938                       # number of demand (read+write) MSHR misses (Count)
system.cpu.dcache.demandMshrMisses::total        39938                       # number of demand (read+write) MSHR misses (Count)
system.cpu.dcache.overallMshrMisses::cpu.data        39938                       # number of overall MSHR misses (Count)
system.cpu.dcache.overallMshrMisses::cpu.dcache.prefetcher        25317                       # number of overall MSHR misses (Count)
system.cpu.dcache.overallMshrMisses::total        65255                       # number of overall MSHR misses (Count)
system.cpu.dcache.demandMshrMissLatency::cpu.data   3258358000                       # number of demand (read+write) MSHR miss ticks (Tick)
system.cpu.dcache.demandMshrMissLatency::total   3258358000                       # number of demand (read+write) MSHR miss ticks (Tick)
system.cpu.dcache.overallMshrMissLatency::cpu.data   3258358000                       # number of overall MSHR miss ticks (Tick)
system.cpu.dcache.overallMshrMissLatency::cpu.dcache.prefetcher   2207568583                       # number of overall MSHR miss ticks (Tick)
system.cpu.dcache.overallMshrMissLatency::total   5465926583                       # number of overall MSHR miss ticks (Tick)
system.cpu.dcache.demandMshrMissRate::cpu.data     0.002641                       # mshr miss ratio for demand accesses (Ratio)
system.cpu.dcache.demandMshrMissRate::total     0.002641                       # mshr miss ratio for demand accesses (Ratio)
system.cpu.dcache.overallMshrMissRate::cpu.data     0.002641                       # mshr miss ratio for overall accesses (Ratio)
system.cpu.dcache.overallMshrMissRate::cpu.dcache.prefetcher          inf                       # mshr miss ratio for overall accesses (Ratio)
system.cpu.dcache.overallMshrMissRate::total     0.004315                       # mshr miss ratio for overall accesses (Ratio)
system.cpu.dcache.demandAvgMshrMissLatency::cpu.data 81585.407381                       # average overall mshr miss latency ((Tick/Count))
system.cpu.dcache.demandAvgMshrMissLatency::total 81585.407381                       # average overall mshr miss latency ((Tick/Count))
system.cpu.dcache.overallAvgMshrMissLatency::cpu.data 81585.407381                       # average overall mshr miss latency ((Tick/Count))
system.cpu.dcache.overallAvgMshrMissLatency::cpu.dcache.prefetcher 87197.084291                       # average overall mshr miss latency ((Tick/Count))
system.cpu.dcache.overallAvgMshrMissLatency::total 83762.571190                       # average overall mshr miss latency ((Tick/Count))
system.cpu.dcache.replacements                  64231                       # number of replacements (Count)
system.cpu.dcache.HardPFReq.mshrMisses::cpu.dcache.prefetcher        25317                       # number of HardPFReq MSHR misses (Count)
system.cpu.dcache.HardPFReq.mshrMisses::total        25317                       # number of HardPFReq MSHR misses (Count)
system.cpu.dcache.HardPFReq.mshrMissLatency::cpu.dcache.prefetcher   2207568583                       # number of HardPFReq MSHR miss ticks (Tick)
system.cpu.dcache.HardPFReq.mshrMissLatency::total   2207568583                       # number of HardPFReq MSHR miss ticks (Tick)
system.cpu.dcache.HardPFReq.mshrMissRate::cpu.dcache.prefetcher          inf                       # mshr miss rate for HardPFReq accesses (Ratio)
system.cpu.dcache.HardPFReq.mshrMissRate::total          inf                       # mshr miss rate for HardPFReq accesses (Ratio)
system.cpu.dcache.HardPFReq.avgMshrMissLatency::cpu.dcache.prefetcher 87197.084291                       # average HardPFReq mshr miss latency ((Tick/Count))
system.cpu.dcache.HardPFReq.avgMshrMissLatency::total 87197.084291                       # average HardPFReq mshr miss latency ((Tick/Count))
system.cpu.dcache.LockedRMWReadReq.hits::cpu.data           12                       # number of LockedRMWReadReq hits (Count)
system.cpu.dcache.LockedRMWReadReq.hits::total           12                       # number of LockedRMWReadReq hits (Count)
system.cpu.dcache.LockedRMWReadReq.accesses::cpu.data           12                       # number of LockedRMWReadReq accesses(hits+misses) (Count)
system.cpu.dcache.LockedRMWReadReq.accesses::total           12                       # number of LockedRMWReadReq accesses(hits+misses) (Count)
system.cpu.dcache.LockedRMWReadReq.mshrMissLatency::cpu.data       165000                       # number of LockedRMWReadReq MSHR miss ticks (Tick)
system.cpu.dcache.LockedRMWReadReq.mshrMissLatency::total       165000                       # number of LockedRMWReadReq MSHR miss ticks (Tick)
system.cpu.dcache.LockedRMWReadReq.avgMshrMissLatency::cpu.data          inf                       # average LockedRMWReadReq mshr miss latency ((Tick/Count))
system.cpu.dcache.LockedRMWReadReq.avgMshrMissLatency::total          inf                       # average LockedRMWReadReq mshr miss latency ((Tick/Count))
system.cpu.dcache.LockedRMWWriteReq.hits::cpu.data           12                       # number of LockedRMWWriteReq hits (Count)
system.cpu.dcache.LockedRMWWriteReq.hits::total           12                       # number of LockedRMWWriteReq hits (Count)
system.cpu.dcache.LockedRMWWriteReq.accesses::cpu.data           12                       # number of LockedRMWWriteReq accesses(hits+misses) (Count)
system.cpu.dcache.LockedRMWWriteReq.accesses::total           12                       # number of LockedRMWWriteReq accesses(hits+misses) (Count)
system.cpu.dcache.ReadReq.hits::cpu.data      8138183                       # number of ReadReq hits (Count)
system.cpu.dcache.ReadReq.hits::total         8138183                       # number of ReadReq hits (Count)
system.cpu.dcache.ReadReq.misses::cpu.data        22984                       # number of ReadReq misses (Count)
system.cpu.dcache.ReadReq.misses::total         22984                       # number of ReadReq misses (Count)
system.cpu.dcache.ReadReq.missLatency::cpu.data   1501719000                       # number of ReadReq miss ticks (Tick)
system.cpu.dcache.ReadReq.missLatency::total   1501719000                       # number of ReadReq miss ticks (Tick)
system.cpu.dcache.ReadReq.accesses::cpu.data      8161167                       # number of ReadReq accesses(hits+misses) (Count)
system.cpu.dcache.ReadReq.accesses::total      8161167                       # number of ReadReq accesses(hits+misses) (Count)
system.cpu.dcache.ReadReq.missRate::cpu.data     0.002816                       # miss rate for ReadReq accesses (Ratio)
system.cpu.dcache.ReadReq.missRate::total     0.002816                       # miss rate for ReadReq accesses (Ratio)
system.cpu.dcache.ReadReq.avgMissLatency::cpu.data 65337.582666                       # average ReadReq miss latency ((Tick/Count))
system.cpu.dcache.ReadReq.avgMissLatency::total 65337.582666                       # average ReadReq miss latency ((Tick/Count))
system.cpu.dcache.ReadReq.mshrHits::cpu.data         8798                       # number of ReadReq MSHR hits (Count)
system.cpu.dcache.ReadReq.mshrHits::total         8798                       # number of ReadReq MSHR hits (Count)
system.cpu.dcache.ReadReq.mshrMisses::cpu.data        14186                       # number of ReadReq MSHR misses (Count)
system.cpu.dcache.ReadReq.mshrMisses::total        14186                       # number of ReadReq MSHR misses (Count)
system.cpu.dcache.ReadReq.mshrMissLatency::cpu.data   1030620000                       # number of ReadReq MSHR miss ticks (Tick)
system.cpu.dcache.ReadReq.mshrMissLatency::total   1030620000                       # number of ReadReq MSHR miss ticks (Tick)
system.cpu.dcache.ReadReq.mshrMissRate::cpu.data     0.001738                       # mshr miss rate for ReadReq accesses (Ratio)
system.cpu.dcache.ReadReq.mshrMissRate::total     0.001738                       # mshr miss rate for ReadReq accesses (Ratio)
system.cpu.dcache.ReadReq.avgMshrMissLatency::cpu.data 72650.500493                       # average ReadReq mshr miss latency ((Tick/Count))
system.cpu.dcache.ReadReq.avgMshrMissLatency::total 72650.500493                       # average ReadReq mshr miss latency ((Tick/Count))
system.cpu.dcache.WriteReq.hits::cpu.data      6935129                       # number of WriteReq hits (Count)
system.cpu.dcache.WriteReq.hits::total        6935129                       # number of WriteReq hits (Count)
system.cpu.dcache.WriteReq.misses::cpu.data        27874                       # number of WriteReq misses (Count)
system.cpu.dcache.WriteReq.misses::total        27874                       # number of WriteReq misses (Count)
system.cpu.dcache.WriteReq.missLatency::cpu.data   2328478000                       # number of WriteReq miss ticks (Tick)
system.cpu.dcache.WriteReq.missLatency::total   2328478000                       # number of WriteReq miss ticks (Tick)
system.cpu.dcache.WriteReq.accesses::cpu.data      6963003                       # number of WriteReq accesses(hits+misses) (Count)
system.cpu.dcache.WriteReq.accesses::total      6963003                       # number of WriteReq accesses(hits+misses) (Count)
system.cpu.dcache.WriteReq.missRate::cpu.data     0.004003                       # miss rate for WriteReq accesses (Ratio)
system.cpu.dcache.WriteReq.missRate::total     0.004003                       # miss rate for WriteReq accesses (Ratio)
system.cpu.dcache.WriteReq.avgMissLatency::cpu.data 83535.839851                       # average WriteReq miss latency ((Tick/Count))
system.cpu.dcache.WriteReq.avgMissLatency::total 83535.839851                       # average WriteReq miss latency ((Tick/Count))
system.cpu.dcache.WriteReq.mshrHits::cpu.data         2122                       # number of WriteReq MSHR hits (Count)
system.cpu.dcache.WriteReq.mshrHits::total         2122                       # number of WriteReq MSHR hits (Count)
system.cpu.dcache.WriteReq.mshrMisses::cpu.data        25752                       # number of WriteReq MSHR misses (Count)
system.cpu.dcache.WriteReq.mshrMisses::total        25752                       # number of WriteReq MSHR misses (Count)
system.cpu.dcache.WriteReq.mshrMissLatency::cpu.data   2227738000                       # number of WriteReq MSHR miss ticks (Tick)
system.cpu.dcache.WriteReq.mshrMissLatency::total   2227738000                       # number of WriteReq MSHR miss ticks (Tick)
system.cpu.dcache.WriteReq.mshrMissRate::cpu.data     0.003698                       # mshr miss rate for WriteReq accesses (Ratio)
system.cpu.dcache.WriteReq.mshrMissRate::total     0.003698                       # mshr miss rate for WriteReq accesses (Ratio)
system.cpu.dcache.WriteReq.avgMshrMissLatency::cpu.data 86507.378068                       # average WriteReq mshr miss latency ((Tick/Count))
system.cpu.dcache.WriteReq.avgMshrMissLatency::total 86507.378068                       # average WriteReq mshr miss latency ((Tick/Count))
system.cpu.dcache.power_state.pwrStateResidencyTicks::UNDEFINED  30964312000                       # Cumulative time (in ticks) in various power states (Tick)
system.cpu.dcache.prefetcher.demandMshrMisses        39938                       # demands not covered by prefetchs (Count)
system.cpu.dcache.prefetcher.pfIssued           25836                       # number of hwpf issued (Count)
system.cpu.dcache.prefetcher.pfUnused              23                       # number of HardPF blocks evicted w/o reference (Count)
system.cpu.dcache.prefetcher.pfUseful           25288                       # number of useful prefetch (Count)
system.cpu.dcache.prefetcher.pfUsefulButMiss            0                       # number of hit on prefetch but cache block is not in an usable state (Count)
system.cpu.dcache.prefetcher.accuracy        0.978789                       # accuracy of the prefetcher (Count)
system.cpu.dcache.prefetcher.coverage        0.387698                       # coverage brought by this prefetcher (Count)
system.cpu.dcache.prefetcher.pfHitInCache          519                       # number of prefetches hitting in cache (Count)
system.cpu.dcache.prefetcher.pfHitInMSHR            0                       # number of prefetches hitting in a MSHR (Count)
system.cpu.dcache.prefetcher.pfHitInWB              0                       # number of prefetches hit in the Write Buffer (Count)
system.cpu.dcache.prefetcher.pfLate               519                       # number of late prefetches (hitting in cache, MSHR or WB) (Count)
system.cpu.dcache.prefetcher.pfIdentified        26995                       # number of prefetch candidates identified (Count)
system.cpu.dcache.prefetcher.pfBufferHit         1087                       # number of redundant prefetches already in prefetch queue (Count)
system.cpu.dcache.prefetcher.pfInCache              0                       # number of redundant prefetches already in cache/mshr dropped (Count)
system.cpu.dcache.prefetcher.pfRemovedDemand            0                       # number of prefetches dropped due to a demand for the same address (Count)
system.cpu.dcache.prefetcher.pfRemovedFull            0                       # number of prefetches dropped due to prefetch queue size (Count)
system.cpu.dcache.prefetcher.pfSpanPage          2753                       # number of prefetches that crossed the page (Count)
system.cpu.dcache.prefetcher.pfUsefulSpanPage            0                       # number of prefetches that is useful and crossed the page (Count)
system.cpu.dcache.prefetcher.power_state.pwrStateResidencyTicks::UNDEFINED  30964312000                       # Cumulative time (in ticks) in various power states (Tick)
system.cpu.dcache.tags.tagsInUse          1020.723716                       # Average ticks per tags in use ((Tick/Count))
system.cpu.dcache.tags.totalRefs             15138591                       # Total number of references to valid blocks. (Count)
system.cpu.dcache.tags.sampledRefs              65255                       # Sample count of references to valid blocks. (Count)
system.cpu.dcache.tags.avgRefs             231.991280                       # Average number of references to valid blocks. ((Count/Count))
system.cpu.dcache.tags.warmupTick              188000                       # The tick when the warmup percentage was hit. (Tick)
system.cpu.dcache.tags.occupancies::cpu.data   671.293758                       # Average occupied blocks per tick, per requestor ((Count/Tick))
system.cpu.dcache.tags.occupancies::cpu.dcache.prefetcher   349.429958                       # Average occupied blocks per tick, per requestor ((Count/Tick))
system.cpu.dcache.tags.avgOccs::cpu.data     0.655560                       # Average percentage of cache occupancy ((Ratio/Tick))
system.cpu.dcache.tags.avgOccs::cpu.dcache.prefetcher     0.341240                       # Average percentage of cache occupancy ((Ratio/Tick))
system.cpu.dcache.tags.avgOccs::total        0.996801                       # Average percentage of cache occupancy ((Ratio/Tick))
system.cpu.dcache.tags.occupanciesTaskId::1022          332                       # Occupied blocks per task id (Count)
system.cpu.dcache.tags.occupanciesTaskId::1024          692                       # Occupied blocks per task id (Count)
system.cpu.dcache.tags.ageTaskId_1022::0            4                       # Occupied blocks per task id, per block age (Count)
system.cpu.dcache.tags.ageTaskId_1022::1           35                       # Occupied blocks per task id, per block age (Count)
system.cpu.dcache.tags.ageTaskId_1022::2          274                       # Occupied blocks per task id, per block age (Count)
system.cpu.dcache.tags.ageTaskId_1022::3           18                       # Occupied blocks per task id, per block age (Count)
system.cpu.dcache.tags.ageTaskId_1022::4            1                       # Occupied blocks per task id, per block age (Count)
system.cpu.dcache.tags.ageTaskId_1024::0            7                       # Occupied blocks per task id, per block age (Count)
system.cpu.dcache.tags.ageTaskId_1024::1           64                       # Occupied blocks per task id, per block age (Count)
system.cpu.dcache.tags.ageTaskId_1024::2          415                       # Occupied blocks per task id, per block age (Count)
system.cpu.dcache.tags.ageTaskId_1024::3          165                       # Occupied blocks per task id, per block age (Count)
system.cpu.dcache.tags.ageTaskId_1024::4           41                       # Occupied blocks per task id, per block age (Count)
system.cpu.dcache.tags.ratioOccsTaskId::1022     0.324219                       # Ratio of occupied blocks and all blocks, per task id (Ratio)
system.cpu.dcache.tags.ratioOccsTaskId::1024     0.675781                       # Ratio of occupied blocks and all blocks, per task id (Ratio)
system.cpu.dcache.tags.tagAccesses           60562031                       # Number of tag accesses (Count)
system.cpu.dcache.tags.dataAccesses          60562031                       # Number of data accesses (Count)
system.cpu.dcache.tags.power_state.pwrStateResidencyTicks::UNDEFINED  30964312000                       # Cumulative time (in ticks) in various power states (Tick)
system.cpu.decode.idleCycles                  4212077                       # Number of cycles decode is idle (Cycle)
system.cpu.decode.blockedCycles              12739412                       # Number of cycles decode is blocked (Cycle)
system.cpu.decode.runCycles                  10205681                       # Number of cycles decode is running (Cycle)
system.cpu.decode.unblockCycles               3735216                       # Number of cycles decode is unblocking (Cycle)
system.cpu.decode.squashCycles                  57597                       # Number of cycles decode is squashing (Cycle)
system.cpu.decode.branchResolved              4396058                       # Number of times decode resolved a branch (Count)
system.cpu.decode.branchMispred                   332                       # Number of times decode detected a branch misprediction (Count)
system.cpu.decode.decodedInsts              100143691                       # Number of instructions handled by decode (Count)
system.cpu.decode.squashedInsts                  1601                       # Number of squashed instructions handled by decode (Count)
system.cpu.fetch.icacheStallCycles            7842482                       # Number of cycles fetch is stalled on an Icache miss (Cycle)
system.cpu.fetch.insts                       53372562                       # Number of instructions fetch has processed (Count)
system.cpu.fetch.branches                    12653383                       # Number of branches that fetch encountered (Count)
system.cpu.fetch.predictedBranches            5102157                       # Number of branches that fetch has predicted taken (Count)
system.cpu.fetch.cycles                      23049336                       # Number of cycles fetch has run and was not squashing or blocked (Cycle)
system.cpu.fetch.squashCycles                  115842                       # Number of cycles fetch has spent squashing (Cycle)
system.cpu.fetch.miscStallCycles                   30                       # Number of cycles fetch has spent waiting on interrupts, or bad addresses, or out of MSHRs (Cycle)
system.cpu.fetch.pendingTrapStallCycles           188                       # Number of stall cycles due to pending traps (Cycle)
system.cpu.fetch.icacheWaitRetryStallCycles           26                       # Number of stall cycles due to full MSHR (Cycle)
system.cpu.fetch.cacheLines                   7782269                       # Number of cache lines fetched (Count)
system.cpu.fetch.icacheSquashes                 13812                       # Number of outstanding Icache misses that were squashed (Count)
system.cpu.fetch.nisnDist::samples           30949983                       # Number of instructions fetched each cycle (Total) (Count)
system.cpu.fetch.nisnDist::mean              3.271719                       # Number of instructions fetched each cycle (Total) (Count)
system.cpu.fetch.nisnDist::stdev             3.517809                       # Number of instructions fetched each cycle (Total) (Count)
system.cpu.fetch.nisnDist::underflows               0      0.00%      0.00% # Number of instructions fetched each cycle (Total) (Count)
system.cpu.fetch.nisnDist::0                 14086073     45.51%     45.51% # Number of instructions fetched each cycle (Total) (Count)
system.cpu.fetch.nisnDist::1                  1072275      3.46%     48.98% # Number of instructions fetched each cycle (Total) (Count)
system.cpu.fetch.nisnDist::2                  1500214      4.85%     53.82% # Number of instructions fetched each cycle (Total) (Count)
system.cpu.fetch.nisnDist::3                  1593985      5.15%     58.97% # Number of instructions fetched each cycle (Total) (Count)
system.cpu.fetch.nisnDist::4                   631399      2.04%     61.01% # Number of instructions fetched each cycle (Total) (Count)
system.cpu.fetch.nisnDist::5                  1434828      4.64%     65.65% # Number of instructions fetched each cycle (Total) (Count)
system.cpu.fetch.nisnDist::6                   837696      2.71%     68.36% # Number of instructions fetched each cycle (Total) (Count)
system.cpu.fetch.nisnDist::7                   669039      2.16%     70.52% # Number of instructions fetched each cycle (Total) (Count)
system.cpu.fetch.nisnDist::8                  9124474     29.48%    100.00% # Number of instructions fetched each cycle (Total) (Count)
system.cpu.fetch.nisnDist::overflows                0      0.00%    100.00% # Number of instructions fetched each cycle (Total) (Count)
system.cpu.fetch.nisnDist::min_value                0                       # Number of instructions fetched each cycle (Total) (Count)
system.cpu.fetch.nisnDist::max_value                8                       # Number of instructions fetched each cycle (Total) (Count)
system.cpu.fetch.nisnDist::total             30949983                       # Number of instructions fetched each cycle (Total) (Count)
system.cpu.fetch.branchRate                  0.408644                       # Number of branch fetches per cycle (Ratio)
system.cpu.fetch.rate                        1.723679                       # Number of inst fetches per cycle ((Count/Cycle))
system.cpu.icache.demandHits::cpu.inst        7781453                       # number of demand (read+write) hits (Count)
system.cpu.icache.demandHits::total           7781453                       # number of demand (read+write) hits (Count)
system.cpu.icache.overallHits::cpu.inst       7781453                       # number of overall hits (Count)
system.cpu.icache.overallHits::total          7781453                       # number of overall hits (Count)
system.cpu.icache.demandMisses::cpu.inst          816                       # number of demand (read+write) misses (Count)
system.cpu.icache.demandMisses::total             816                       # number of demand (read+write) misses (Count)
system.cpu.icache.overallMisses::cpu.inst          816                       # number of overall misses (Count)
system.cpu.icache.overallMisses::total            816                       # number of overall misses (Count)
system.cpu.icache.demandMissLatency::cpu.inst     60619000                       # number of demand (read+write) miss ticks (Tick)
system.cpu.icache.demandMissLatency::total     60619000                       # number of demand (read+write) miss ticks (Tick)
system.cpu.icache.overallMissLatency::cpu.inst     60619000                       # number of overall miss ticks (Tick)
system.cpu.icache.overallMissLatency::total     60619000                       # number of overall miss ticks (Tick)
system.cpu.icache.demandAccesses::cpu.inst      7782269                       # number of demand (read+write) accesses (Count)
system.cpu.icache.demandAccesses::total       7782269                       # number of demand (read+write) accesses (Count)
system.cpu.icache.overallAccesses::cpu.inst      7782269                       # number of overall (read+write) accesses (Count)
system.cpu.icache.overallAccesses::total      7782269                       # number of overall (read+write) accesses (Count)
system.cpu.icache.demandMissRate::cpu.inst     0.000105                       # miss rate for demand accesses (Ratio)
system.cpu.icache.demandMissRate::total      0.000105                       # miss rate for demand accesses (Ratio)
system.cpu.icache.overallMissRate::cpu.inst     0.000105                       # miss rate for overall accesses (Ratio)
system.cpu.icache.overallMissRate::total     0.000105                       # miss rate for overall accesses (Ratio)
system.cpu.icache.demandAvgMissLatency::cpu.inst 74287.990196                       # average overall miss latency in ticks ((Tick/Count))
system.cpu.icache.demandAvgMissLatency::total 74287.990196                       # average overall miss latency in ticks ((Tick/Count))
system.cpu.icache.overallAvgMissLatency::cpu.inst 74287.990196                       # average overall miss latency ((Tick/Count))
system.cpu.icache.overallAvgMissLatency::total 74287.990196                       # average overall miss latency ((Tick/Count))
system.cpu.icache.blockedCycles::no_mshrs           89                       # number of cycles access was blocked (Cycle)
system.cpu.icache.blockedCycles::no_targets            0                       # number of cycles access was blocked (Cycle)
system.cpu.icache.blockedCauses::no_mshrs            3                       # number of times access was blocked (Count)
system.cpu.icache.blockedCauses::no_targets            0                       # number of times access was blocked (Count)
system.cpu.icache.avgBlocked::no_mshrs      29.666667                       # average number of cycles each access was blocked ((Cycle/Count))
system.cpu.icache.avgBlocked::no_targets          nan                       # average number of cycles each access was blocked ((Cycle/Count))
system.cpu.icache.demandMshrHits::cpu.inst          208                       # number of demand (read+write) MSHR hits (Count)
system.cpu.icache.demandMshrHits::total           208                       # number of demand (read+write) MSHR hits (Count)
system.cpu.icache.overallMshrHits::cpu.inst          208                       # number of overall MSHR hits (Count)
system.cpu.icache.overallMshrHits::total          208                       # number of overall MSHR hits (Count)
system.cpu.icache.demandMshrMisses::cpu.inst          608                       # number of demand (read+write) MSHR misses (Count)
system.cpu.icache.demandMshrMisses::total          608                       # number of demand (read+write) MSHR misses (Count)
system.cpu.icache.overallMshrMisses::cpu.inst          608                       # number of overall MSHR misses (Count)
system.cpu.icache.overallMshrMisses::total          608                       # number of overall MSHR misses (Count)
system.cpu.icache.demandMshrMissLatency::cpu.inst     49073000                       # number of demand (read+write) MSHR miss ticks (Tick)
system.cpu.icache.demandMshrMissLatency::total     49073000                       # number of demand (read+write) MSHR miss ticks (Tick)
system.cpu.icache.overallMshrMissLatency::cpu.inst     49073000                       # number of overall MSHR miss ticks (Tick)
system.cpu.icache.overallMshrMissLatency::total     49073000                       # number of overall MSHR miss ticks (Tick)
system.cpu.icache.demandMshrMissRate::cpu.inst     0.000078                       # mshr miss ratio for demand accesses (Ratio)
system.cpu.icache.demandMshrMissRate::total     0.000078                       # mshr miss ratio for demand accesses (Ratio)
system.cpu.icache.overallMshrMissRate::cpu.inst     0.000078                       # mshr miss ratio for overall accesses (Ratio)
system.cpu.icache.overallMshrMissRate::total     0.000078                       # mshr miss ratio for overall accesses (Ratio)
system.cpu.icache.demandAvgMshrMissLatency::cpu.inst 80712.171053                       # average overall mshr miss latency ((Tick/Count))
system.cpu.icache.demandAvgMshrMissLatency::total 80712.171053                       # average overall mshr miss latency ((Tick/Count))
system.cpu.icache.overallAvgMshrMissLatency::cpu.inst 80712.171053                       # average overall mshr miss latency ((Tick/Count))
system.cpu.icache.overallAvgMshrMissLatency::total 80712.171053                       # average overall mshr miss latency ((Tick/Count))
system.cpu.icache.replacements                     18                       # number of replacements (Count)
system.cpu.icache.ReadReq.hits::cpu.inst      7781453                       # number of ReadReq hits (Count)
system.cpu.icache.ReadReq.hits::total         7781453                       # number of ReadReq hits (Count)
system.cpu.icache.ReadReq.misses::cpu.inst          816                       # number of ReadReq misses (Count)
system.cpu.icache.ReadReq.misses::total           816                       # number of ReadReq misses (Count)
system.cpu.icache.ReadReq.missLatency::cpu.inst     60619000                       # number of ReadReq miss ticks (Tick)
system.cpu.icache.ReadReq.missLatency::total     60619000                       # number of ReadReq miss ticks (Tick)
system.cpu.icache.ReadReq.accesses::cpu.inst      7782269                       # number of ReadReq accesses(hits+misses) (Count)
system.cpu.icache.ReadReq.accesses::total      7782269                       # number of ReadReq accesses(hits+misses) (Count)
system.cpu.icache.ReadReq.missRate::cpu.inst     0.000105                       # miss rate for ReadReq accesses (Ratio)
system.cpu.icache.ReadReq.missRate::total     0.000105                       # miss rate for ReadReq accesses (Ratio)
system.cpu.icache.ReadReq.avgMissLatency::cpu.inst 74287.990196                       # average ReadReq miss latency ((Tick/Count))
system.cpu.icache.ReadReq.avgMissLatency::total 74287.990196                       # average ReadReq miss latency ((Tick/Count))
system.cpu.icache.ReadReq.mshrHits::cpu.inst          208                       # number of ReadReq MSHR hits (Count)
system.cpu.icache.ReadReq.mshrHits::total          208                       # number of ReadReq MSHR hits (Count)
system.cpu.icache.ReadReq.mshrMisses::cpu.inst          608                       # number of ReadReq MSHR misses (Count)
system.cpu.icache.ReadReq.mshrMisses::total          608                       # number of ReadReq MSHR misses (Count)
system.cpu.icache.ReadReq.mshrMissLatency::cpu.inst     49073000                       # number of ReadReq MSHR miss ticks (Tick)
system.cpu.icache.ReadReq.mshrMissLatency::total     49073000                       # number of ReadReq MSHR miss ticks (Tick)
system.cpu.icache.ReadReq.mshrMissRate::cpu.inst     0.000078                       # mshr miss rate for ReadReq accesses (Ratio)
system.cpu.icache.ReadReq.mshrMissRate::total     0.000078                       # mshr miss rate for ReadReq accesses (Ratio)
system.cpu.icache.ReadReq.avgMshrMissLatency::cpu.inst 80712.171053                       # average ReadReq mshr miss latency ((Tick/Count))
system.cpu.icache.ReadReq.avgMshrMissLatency::total 80712.171053                       # average ReadReq mshr miss latency ((Tick/Count))
system.cpu.icache.power_state.pwrStateResidencyTicks::UNDEFINED  30964312000                       # Cumulative time (in ticks) in various power states (Tick)
system.cpu.icache.prefetcher.demandMshrMisses          608                       # demands not covered by prefetchs (Count)
system.cpu.icache.prefetcher.pfIssued               0                       # number of hwpf issued (Count)
system.cpu.icache.prefetcher.pfUseful               0                       # number of useful prefetch (Count)
system.cpu.icache.prefetcher.pfUsefulButMiss            0                       # number of hit on prefetch but cache block is not in an usable state (Count)
system.cpu.icache.prefetcher.accuracy             nan                       # accuracy of the prefetcher (Count)
system.cpu.icache.prefetcher.coverage               0                       # coverage brought by this prefetcher (Count)
system.cpu.icache.prefetcher.pfHitInCache            0                       # number of prefetches hitting in cache (Count)
system.cpu.icache.prefetcher.pfHitInMSHR            0                       # number of prefetches hitting in a MSHR (Count)
system.cpu.icache.prefetcher.pfHitInWB              0                       # number of prefetches hit in the Write Buffer (Count)
system.cpu.icache.prefetcher.pfLate                 0                       # number of late prefetches (hitting in cache, MSHR or WB) (Count)
system.cpu.icache.prefetcher.pfIdentified            0                       # number of prefetch candidates identified (Count)
system.cpu.icache.prefetcher.pfBufferHit            0                       # number of redundant prefetches already in prefetch queue (Count)
system.cpu.icache.prefetcher.pfInCache              0                       # number of redundant prefetches already in cache/mshr dropped (Count)
system.cpu.icache.prefetcher.pfRemovedDemand            0                       # number of prefetches dropped due to a demand for the same address (Count)
system.cpu.icache.prefetcher.pfRemovedFull            0                       # number of prefetches dropped due to prefetch queue size (Count)
system.cpu.icache.prefetcher.pfSpanPage             0                       # number of prefetches that crossed the page (Count)
system.cpu.icache.prefetcher.pfUsefulSpanPage            0                       # number of prefetches that is useful and crossed the page (Count)
system.cpu.icache.prefetcher.power_state.pwrStateResidencyTicks::UNDEFINED  30964312000                       # Cumulative time (in ticks) in various power states (Tick)
system.cpu.icache.tags.tagsInUse           583.751743                       # Average ticks per tags in use ((Tick/Count))
system.cpu.icache.tags.totalRefs              7782061                       # Total number of references to valid blocks. (Count)
system.cpu.icache.tags.sampledRefs                608                       # Sample count of references to valid blocks. (Count)
system.cpu.icache.tags.avgRefs           12799.442434                       # Average number of references to valid blocks. ((Count/Count))
system.cpu.icache.tags.warmupTick               88000                       # The tick when the warmup percentage was hit. (Tick)
system.cpu.icache.tags.occupancies::cpu.inst   583.751743                       # Average occupied blocks per tick, per requestor ((Count/Tick))
system.cpu.icache.tags.avgOccs::cpu.inst     0.570070                       # Average percentage of cache occupancy ((Ratio/Tick))
system.cpu.icache.tags.avgOccs::total        0.570070                       # Average percentage of cache occupancy ((Ratio/Tick))
system.cpu.icache.tags.occupanciesTaskId::1024          590                       # Occupied blocks per task id (Count)
system.cpu.icache.tags.ageTaskId_1024::4          590                       # Occupied blocks per task id, per block age (Count)
system.cpu.icache.tags.ratioOccsTaskId::1024     0.576172                       # Ratio of occupied blocks and all blocks, per task id (Ratio)
system.cpu.icache.tags.tagAccesses           31129684                       # Number of tag accesses (Count)
system.cpu.icache.tags.dataAccesses          31129684                       # Number of data accesses (Count)
system.cpu.icache.tags.power_state.pwrStateResidencyTicks::UNDEFINED  30964312000                       # Cumulative time (in ticks) in various power states (Tick)
system.cpu.iew.idleCycles                           0                       # Number of cycles IEW is idle (Cycle)
system.cpu.iew.squashCycles                     57597                       # Number of cycles IEW is squashing (Cycle)
system.cpu.iew.blockCycles                     558773                       # Number of cycles IEW is blocking (Cycle)
system.cpu.iew.unblockCycles                    21892                       # Number of cycles IEW is unblocking (Cycle)
system.cpu.iew.dispatchedInsts               99158274                       # Number of instructions dispatched to IQ (Count)
system.cpu.iew.dispSquashedInsts                   58                       # Number of squashed instructions skipped by dispatch (Count)
[...]
system.mem_ctrl.dram.numWrites::writebacks        57235                       # Number of write requests responded to by this memory (Count)
system.mem_ctrl.dram.numWrites::total           57235                       # Number of write requests responded to by this memory (Count)
system.mem_ctrl.dram.bwRead::cpu.inst         1233937                       # Total read bandwidth from this memory ((Byte/Second))
system.mem_ctrl.dram.bwRead::cpu.data        76163036                       # Total read bandwidth from this memory ((Byte/Second))
system.mem_ctrl.dram.bwRead::cpu.dcache.prefetcher     51891481                       # Total read bandwidth from this memory ((Byte/Second))
system.mem_ctrl.dram.bwRead::l2cache.prefetcher       996244                       # Total read bandwidth from this memory ((Byte/Second))
system.mem_ctrl.dram.bwRead::total          130284697                       # Total read bandwidth from this memory ((Byte/Second))
system.mem_ctrl.dram.bwInstRead::cpu.inst      1233937                       # Instruction read bandwidth from this memory ((Byte/Second))
system.mem_ctrl.dram.bwInstRead::total        1233937                       # Instruction read bandwidth from this memory ((Byte/Second))
system.mem_ctrl.dram.bwWrite::writebacks    118298769                       # Write bandwidth from this memory ((Byte/Second))
system.mem_ctrl.dram.bwWrite::total         118298769                       # Write bandwidth from this memory ((Byte/Second))
system.mem_ctrl.dram.bwTotal::writebacks    118298769                       # Total bandwidth to/from this memory ((Byte/Second))
system.mem_ctrl.dram.bwTotal::cpu.inst        1233937                       # Total bandwidth to/from this memory ((Byte/Second))
system.mem_ctrl.dram.bwTotal::cpu.data       76163036                       # Total bandwidth to/from this memory ((Byte/Second))
system.mem_ctrl.dram.bwTotal::cpu.dcache.prefetcher     51891481                       # Total bandwidth to/from this memory ((Byte/Second))
system.mem_ctrl.dram.bwTotal::l2cache.prefetcher       996244                       # Total bandwidth to/from this memory ((Byte/Second))
system.mem_ctrl.dram.bwTotal::total         248583466                       # Total bandwidth to/from this memory ((Byte/Second))
system.mem_ctrl.dram.readBursts                 63029                       # Number of DRAM read bursts (Count)
system.mem_ctrl.dram.writeBursts                57206                       # Number of DRAM write bursts (Count)
system.mem_ctrl.dram.perBankRdBursts::0          3870                       # Per bank write bursts (Count)
system.mem_ctrl.dram.perBankRdBursts::1          3919                       # Per bank write bursts (Count)
system.mem_ctrl.dram.perBankRdBursts::2          3931                       # Per bank write bursts (Count)
system.mem_ctrl.dram.perBankRdBursts::3          3908                       # Per bank write bursts (Count)
system.mem_ctrl.dram.perBankRdBursts::4          3870                       # Per bank write bursts (Count)
system.mem_ctrl.dram.perBankRdBursts::5          3905                       # Per bank write bursts (Count)
system.mem_ctrl.dram.perBankRdBursts::6          3960                       # Per bank write bursts (Count)
system.mem_ctrl.dram.perBankRdBursts::7          3768                       # Per bank write bursts (Count)
system.mem_ctrl.dram.perBankRdBursts::8          3857                       # Per bank write bursts (Count)
system.mem_ctrl.dram.perBankRdBursts::9          3725                       # Per bank write bursts (Count)
system.mem_ctrl.dram.perBankRdBursts::10         4877                       # Per bank write bursts (Count)
system.mem_ctrl.dram.perBankRdBursts::11         3828                       # Per bank write bursts (Count)
system.mem_ctrl.dram.perBankRdBursts::12         3918                       # Per bank write bursts (Count)
system.mem_ctrl.dram.perBankRdBursts::13         3951                       # Per bank write bursts (Count)
system.mem_ctrl.dram.perBankRdBursts::14         3888                       # Per bank write bursts (Count)
system.mem_ctrl.dram.perBankRdBursts::15         3854                       # Per bank write bursts (Count)
system.mem_ctrl.dram.perBankWrBursts::0          3530                       # Per bank write bursts (Count)
system.mem_ctrl.dram.perBankWrBursts::1          3602                       # Per bank write bursts (Count)
system.mem_ctrl.dram.perBankWrBursts::2          3641                       # Per bank write bursts (Count)
system.mem_ctrl.dram.perBankWrBursts::3          3594                       # Per bank write bursts (Count)
system.mem_ctrl.dram.perBankWrBursts::4          3568                       # Per bank write bursts (Count)
system.mem_ctrl.dram.perBankWrBursts::5          3554                       # Per bank write bursts (Count)
system.mem_ctrl.dram.perBankWrBursts::6          3615                       # Per bank write bursts (Count)
system.mem_ctrl.dram.perBankWrBursts::7          3509                       # Per bank write bursts (Count)
system.mem_ctrl.dram.perBankWrBursts::8          3589                       # Per bank write bursts (Count)
system.mem_ctrl.dram.perBankWrBursts::9          3493                       # Per bank write bursts (Count)
system.mem_ctrl.dram.perBankWrBursts::10         3556                       # Per bank write bursts (Count)
system.mem_ctrl.dram.perBankWrBursts::11         3521                       # Per bank write bursts (Count)
system.mem_ctrl.dram.perBankWrBursts::12         3618                       # Per bank write bursts (Count)
system.mem_ctrl.dram.perBankWrBursts::13         3621                       # Per bank write bursts (Count)
system.mem_ctrl.dram.perBankWrBursts::14         3646                       # Per bank write bursts (Count)
system.mem_ctrl.dram.perBankWrBursts::15         3549                       # Per bank write bursts (Count)
system.mem_ctrl.dram.totQLat                912155564                       # Total ticks spent queuing (Tick)
system.mem_ctrl.dram.totBusLat              315145000                       # Total ticks spent in databus transfers (Tick)
system.mem_ctrl.dram.totMemAccLat          2093949314                       # Total ticks spent from burst creation until serviced by the DRAM (Tick)
system.mem_ctrl.dram.avgQLat                 14472.00                       # Average queueing delay per DRAM burst ((Tick/Count))
system.mem_ctrl.dram.avgBusLat                5000.00                       # Average bus latency per DRAM burst ((Tick/Count))
system.mem_ctrl.dram.avgMemAccLat            33222.00                       # Average memory access latency per DRAM burst ((Tick/Count))
system.mem_ctrl.dram.readRowHits                49132                       # Number of row buffer hits during reads (Count)
system.mem_ctrl.dram.writeRowHits               44381                       # Number of row buffer hits during writes (Count)
system.mem_ctrl.dram.readRowHitRate             77.95                       # Row buffer hit rate for reads (Ratio)
system.mem_ctrl.dram.writeRowHitRate            77.58                       # Row buffer hit rate for writes (Ratio)
system.mem_ctrl.dram.bytesPerActivate::samples        26721                       # Bytes accessed per row activation (Byte)
system.mem_ctrl.dram.bytesPerActivate::mean   287.965271                       # Bytes accessed per row activation (Byte)
system.mem_ctrl.dram.bytesPerActivate::gmean   172.187494                       # Bytes accessed per row activation (Byte)
system.mem_ctrl.dram.bytesPerActivate::stdev   295.062894                       # Bytes accessed per row activation (Byte)
system.mem_ctrl.dram.bytesPerActivate::0-127        11593     43.39%     43.39% # Bytes accessed per row activation (Byte)
system.mem_ctrl.dram.bytesPerActivate::128-255         4423     16.55%     59.94% # Bytes accessed per row activation (Byte)
system.mem_ctrl.dram.bytesPerActivate::256-383         2216      8.29%     68.23% # Bytes accessed per row activation (Byte)
system.mem_ctrl.dram.bytesPerActivate::384-511         2504      9.37%     77.60% # Bytes accessed per row activation (Byte)
system.mem_ctrl.dram.bytesPerActivate::512-639         1905      7.13%     84.73% # Bytes accessed per row activation (Byte)
system.mem_ctrl.dram.bytesPerActivate::640-767          977      3.66%     88.39% # Bytes accessed per row activation (Byte)
system.mem_ctrl.dram.bytesPerActivate::768-895          841      3.15%     91.53% # Bytes accessed per row activation (Byte)
system.mem_ctrl.dram.bytesPerActivate::896-1023          684      2.56%     94.09% # Bytes accessed per row activation (Byte)
system.mem_ctrl.dram.bytesPerActivate::1024-1151         1578      5.91%    100.00% # Bytes accessed per row activation (Byte)
system.mem_ctrl.dram.bytesPerActivate::total        26721                       # Bytes accessed per row activation (Byte)
system.mem_ctrl.dram.bytesRead                4033856                       # Total bytes read (Byte)
system.mem_ctrl.dram.bytesWritten             3661184                       # Total bytes written (Byte)
system.mem_ctrl.dram.avgRdBW               130.274362                       # Average DRAM read bandwidth in MiBytes/s ((Byte/Second))
system.mem_ctrl.dram.avgWrBW               118.238829                       # Average DRAM write bandwidth in MiBytes/s ((Byte/Second))
system.mem_ctrl.dram.peakBW                  12800.00                       # Theoretical peak bandwidth in MiByte/s ((Byte/Second))
system.mem_ctrl.dram.busUtil                     1.94                       # Data bus utilization in percentage (Ratio)
system.mem_ctrl.dram.busUtilRead                 1.02                       # Data bus utilization in percentage for reads (Ratio)
system.mem_ctrl.dram.busUtilWrite                0.92                       # Data bus utilization in percentage for writes (Ratio)
system.mem_ctrl.dram.pageHitRate                77.78                       # Row buffer hit rate, read and write combined (Ratio)
system.mem_ctrl.dram.power_state.pwrStateResidencyTicks::UNDEFINED  30964312000                       # Cumulative time (in ticks) in various power states (Tick)
system.mem_ctrl.dram.rank0.actEnergy         92948520                       # Energy for activate commands per rank (pJ) (Joule)
system.mem_ctrl.dram.rank0.preEnergy         49399515                       # Energy for precharge commands per rank (pJ) (Joule)
system.mem_ctrl.dram.rank0.readEnergy       222275340                       # Energy for read commands per rank (pJ) (Joule)
system.mem_ctrl.dram.rank0.writeEnergy      149359860                       # Energy for write commands per rank (pJ) (Joule)
system.mem_ctrl.dram.rank0.refreshEnergy 2443808640.000000                       # Energy for refresh commands per rank (pJ) (Joule)
system.mem_ctrl.dram.rank0.actBackEnergy   8664799710                       # Energy for active background per rank (pJ) (Joule)
system.mem_ctrl.dram.rank0.preBackEnergy   4593622560                       # Energy for precharge background per rank (pJ) (Joule)
system.mem_ctrl.dram.rank0.actPowerDownEnergy            0                       # Energy for active power-down per rank (pJ) (Joule)
system.mem_ctrl.dram.rank0.prePowerDownEnergy            0                       # Energy for precharge power-down per rank (pJ) (Joule)
system.mem_ctrl.dram.rank0.selfRefreshEnergy            0                       # Energy for self refresh per rank (pJ) (Joule)
system.mem_ctrl.dram.rank0.totalEnergy    16216214145                       # Total energy per rank (pJ) (Joule)
system.mem_ctrl.dram.rank0.averagePower    523.706587                       # Core power per rank (mW) (Watt)
system.mem_ctrl.dram.rank0.totalIdleTime            0                       # Total Idle time Per DRAM Rank (Tick)
system.mem_ctrl.dram.rank0.pwrStateTime::IDLE  11854934254                       # Time in different power states (Tick)
system.mem_ctrl.dram.rank0.pwrStateTime::REF   1033760000                       # Time in different power states (Tick)
system.mem_ctrl.dram.rank0.pwrStateTime::SREF            0                       # Time in different power states (Tick)
system.mem_ctrl.dram.rank0.pwrStateTime::PRE_PDN            0                       # Time in different power states (Tick)
system.mem_ctrl.dram.rank0.pwrStateTime::ACT  18075617746                       # Time in different power states (Tick)
system.mem_ctrl.dram.rank0.pwrStateTime::ACT_PDN            0                       # Time in different power states (Tick)
system.mem_ctrl.dram.rank1.actEnergy         97846560                       # Energy for activate commands per rank (pJ) (Joule)
system.mem_ctrl.dram.rank1.preEnergy         52006680                       # Energy for precharge commands per rank (pJ) (Joule)
system.mem_ctrl.dram.rank1.readEnergy       227751720                       # Energy for read commands per rank (pJ) (Joule)
system.mem_ctrl.dram.rank1.writeEnergy      149255460                       # Energy for write commands per rank (pJ) (Joule)
system.mem_ctrl.dram.rank1.refreshEnergy 2443808640.000000                       # Energy for refresh commands per rank (pJ) (Joule)
system.mem_ctrl.dram.rank1.actBackEnergy   8968292790                       # Energy for active background per rank (pJ) (Joule)
system.mem_ctrl.dram.rank1.preBackEnergy   4338049440                       # Energy for precharge background per rank (pJ) (Joule)
system.mem_ctrl.dram.rank1.actPowerDownEnergy            0                       # Energy for active power-down per rank (pJ) (Joule)
system.mem_ctrl.dram.rank1.prePowerDownEnergy            0                       # Energy for precharge power-down per rank (pJ) (Joule)
system.mem_ctrl.dram.rank1.selfRefreshEnergy            0                       # Energy for self refresh per rank (pJ) (Joule)
system.mem_ctrl.dram.rank1.totalEnergy    16277011290                       # Total energy per rank (pJ) (Joule)
system.mem_ctrl.dram.rank1.averagePower    525.670045                       # Core power per rank (mW) (Watt)
system.mem_ctrl.dram.rank1.totalIdleTime            0                       # Total Idle time Per DRAM Rank (Tick)
system.mem_ctrl.dram.rank1.pwrStateTime::IDLE  11188383751                       # Time in different power states (Tick)
system.mem_ctrl.dram.rank1.pwrStateTime::REF   1033760000                       # Time in different power states (Tick)
system.mem_ctrl.dram.rank1.pwrStateTime::SREF            0                       # Time in different power states (Tick)
system.mem_ctrl.dram.rank1.pwrStateTime::PRE_PDN            0                       # Time in different power states (Tick)
system.mem_ctrl.dram.rank1.pwrStateTime::ACT  18742168249                       # Time in different power states (Tick)
system.mem_ctrl.dram.rank1.pwrStateTime::ACT_PDN            0                       # Time in different power states (Tick)
system.mem_ctrl.power_state.pwrStateResidencyTicks::UNDEFINED  30964312000                       # Cumulative time (in ticks) in various power states (Tick)
system.membus.transDist::ReadResp               37298                       # Transaction distribution (Count)
system.membus.transDist::WritebackDirty         57235                       # Transaction distribution (Count)
system.membus.transDist::CleanEvict              1052                       # Transaction distribution (Count)
system.membus.transDist::ReadExReq              25736                       # Transaction distribution (Count)
system.membus.transDist::ReadExResp             25736                       # Transaction distribution (Count)
system.membus.transDist::ReadSharedReq          37298                       # Transaction distribution (Count)
system.membus.pktCount_system.l2cache.mem_side_port::system.mem_ctrl.port       184355                       # Packet count per connected requestor and responder (Count)
system.membus.pktCount_system.l2cache.mem_side_port::total       184355                       # Packet count per connected requestor and responder (Count)
system.membus.pktCount::total                  184355                       # Packet count per connected requestor and responder (Count)
system.membus.pktSize_system.l2cache.mem_side_port::system.mem_ctrl.port      7697216                       # Cumulative packet size per connected requestor and responder (Byte)
system.membus.pktSize_system.l2cache.mem_side_port::total      7697216                       # Cumulative packet size per connected requestor and responder (Byte)
system.membus.pktSize::total                  7697216                       # Cumulative packet size per connected requestor and responder (Byte)
system.membus.snoops                                0                       # Total snoops (Count)
system.membus.snoopTraffic                          0                       # Total snoop traffic (Byte)
system.membus.snoopFanout::samples              63034                       # Request fanout histogram (Count)
system.membus.snoopFanout::mean                     0                       # Request fanout histogram (Count)
system.membus.snoopFanout::stdev                    0                       # Request fanout histogram (Count)
system.membus.snoopFanout::underflows               0      0.00%      0.00% # Request fanout histogram (Count)
system.membus.snoopFanout::0                    63034    100.00%    100.00% # Request fanout histogram (Count)
system.membus.snoopFanout::1                        0      0.00%    100.00% # Request fanout histogram (Count)
system.membus.snoopFanout::overflows                0      0.00%    100.00% # Request fanout histogram (Count)
system.membus.snoopFanout::min_value                0                       # Request fanout histogram (Count)
system.membus.snoopFanout::max_value                0                       # Request fanout histogram (Count)
system.membus.snoopFanout::total                63034                       # Request fanout histogram (Count)
system.membus.power_state.pwrStateResidencyTicks::UNDEFINED  30964312000                       # Cumulative time (in ticks) in various power states (Tick)
system.membus.reqLayer2.occupancy           350291407                       # Layer occupancy (ticks) (Tick)
system.membus.reqLayer2.utilization               0.0                       # Layer utilization (Ratio)
system.membus.respLayer0.occupancy          331949606                       # Layer occupancy (ticks) (Tick)
system.membus.respLayer0.utilization              0.0                       # Layer utilization (Ratio)
system.membus.snoop_filter.totRequests         121321                       # Total number of requests made to the snoop filter. (Count)
system.membus.snoop_filter.hitSingleRequests        58288                       # Number of requests hitting in the snoop filter with a single holder of the requested data. (Count)
system.membus.snoop_filter.hitMultiRequests            0                       # Number of requests hitting in the snoop filter with multiple (>1) holders of the requested data. (Count)
system.membus.snoop_filter.totSnoops                0                       # Total number of snoops made to the snoop filter. (Count)
system.membus.snoop_filter.hitSingleSnoops            0                       # Number of snoops hitting in the snoop filter with a single holder of the requested data. (Count)
system.membus.snoop_filter.hitMultiSnoops            0                       # Number of snoops hitting in the snoop filter with multiple (>1) holders of the requested data. (Count)
system.workload.inst.arm                            0                       # number of arm instructions executed (Count)
system.workload.inst.quiesce                        0                       # number of quiesce instructions executed (Count)

---------- End Simulation Statistics   ----------
