
---------- Begin Simulation Statistics ----------
simSeconds                                   0.045257                       # Number of seconds simulated (Second)
simTicks                                  45256793000                       # Number of ticks simulated (Tick)
finalTick                                 45256793000                       # Number of ticks from beginning of simulation (restored from checkpoints and never reset) (Tick)
simFreq                                  1000000000000                       # The number of ticks per simulated second ((Tick/Second))
hostSeconds                                    192.15                       # Real time elapsed on the host (Second)
hostTickRate                                235525644                       # The number of ticks simulated per host second (ticks/s) ((Tick/Second))
hostMemory                                    8521520                       # Number of bytes of host memory used (Byte)
simInsts                                      5000000                       # Number of instructions simulated (Count)
simOps                                        6698741                       # Number of ops (including micro ops) simulated (Count)
hostInstRate                                    26021                       # Simulator instruction rate (inst/s) ((Count/Second))
hostOpRate                                      34862                       # Simulator op (including micro ops) rate (op/s) ((Count/Second))
system.clk_domain.clock                          1000                       # Clock period in ticks (Tick)
system.clk_domain.voltage_domain.voltage            1                       # Voltage in Volts (Volt)
system.cpu.numCycles                         45256804                       # Number of cpu cycles simulated (Cycle)
system.cpu.numWorkItemsStarted                      0                       # Number of work items this cpu started (Count)
system.cpu.numWorkItemsCompleted                    0                       # Number of work items this cpu completed (Count)
system.cpu.instsAdded                        48444604                       # Number of instructions added to the IQ (excludes non-spec) (Count)
system.cpu.nonSpecInstsAdded                  1488123                       # Number of non-speculative instructions added to the IQ (Count)
system.cpu.instsIssued                       48541055                       # Number of instructions issued (Count)
system.cpu.squashedInstsIssued                   3991                       # Number of squashed instructions issued (Count)
system.cpu.squashedInstsExamined             43233942                       # Number of squashed instructions iterated over during squash; mainly for profiling (Count)
system.cpu.squashedOperandsExamined           1798666                       # Number of squashed operands that are examined and possibly removed from graph (Count)
system.cpu.squashedNonSpecRemoved             1400561                       # Number of squashed non-spec instructions that were removed (Count)
system.cpu.numIssuedDist::samples            45245239                       # Number of insts issued each cycle (Count)
system.cpu.numIssuedDist::mean               1.072843                       # Number of insts issued each cycle (Count)
system.cpu.numIssuedDist::stdev              1.545116                       # Number of insts issued each cycle (Count)
system.cpu.numIssuedDist::underflows                0      0.00%      0.00% # Number of insts issued each cycle (Count)
system.cpu.numIssuedDist::0                  24937175     55.12%     55.12% # Number of insts issued each cycle (Count)
system.cpu.numIssuedDist::1                   6160905     13.62%     68.73% # Number of insts issued each cycle (Count)
system.cpu.numIssuedDist::2                   8005362     17.69%     86.43% # Number of insts issued each cycle (Count)
system.cpu.numIssuedDist::3                   2180147      4.82%     91.24% # Number of insts issued each cycle (Count)
system.cpu.numIssuedDist::4                   1292060      2.86%     94.10% # Number of insts issued each cycle (Count)
system.cpu.numIssuedDist::5                   1575600      3.48%     97.58% # Number of insts issued each cycle (Count)
system.cpu.numIssuedDist::6                    875185      1.93%     99.52% # Number of insts issued each cycle (Count)
system.cpu.numIssuedDist::7                    218805      0.48%    100.00% # Number of insts issued each cycle (Count)
system.cpu.numIssuedDist::8                         0      0.00%    100.00% # Number of insts issued each cycle (Count)
system.cpu.numIssuedDist::overflows                 0      0.00%    100.00% # Number of insts issued each cycle (Count)
system.cpu.numIssuedDist::min_value                 0                       # Number of insts issued each cycle (Count)
system.cpu.numIssuedDist::max_value                 7                       # Number of insts issued each cycle (Count)
system.cpu.numIssuedDist::total              45245239                       # Number of insts issued each cycle (Count)
system.cpu.statFuBusy::No_OpClass                   0      0.00%      0.00% # attempts to use FU when none available (Count)
system.cpu.statFuBusy::IntAlu                 1750441     10.59%     10.59% # attempts to use FU when none available (Count)
system.cpu.statFuBusy::IntMult                      0      0.00%     10.59% # attempts to use FU when none available (Count)
system.cpu.statFuBusy::IntDiv                       0      0.00%     10.59% # attempts to use FU when none available (Count)
system.cpu.statFuBusy::FloatAdd                     0      0.00%     10.59% # attempts to use FU when none available (Count)
system.cpu.statFuBusy::FloatCmp                     0      0.00%     10.59% # attempts to use FU when none available (Count)
system.cpu.statFuBusy::FloatCvt                     0      0.00%     10.59% # attempts to use FU when none available (Count)
system.cpu.statFuBusy::FloatMult                    0      0.00%     10.59% # attempts to use FU when none available (Count)
system.cpu.statFuBusy::FloatMultAcc                 0      0.00%     10.59% # attempts to use FU when none available (Count)
system.cpu.statFuBusy::FloatDiv                     0      0.00%     10.59% # attempts to use FU when none available (Count)
system.cpu.statFuBusy::FloatMisc                    0      0.00%     10.59% # attempts to use FU when none available (Count)
system.cpu.statFuBusy::FloatSqrt                    0      0.00%     10.59% # attempts to use FU when none available (Count)
system.cpu.statFuBusy::SimdAdd                      0      0.00%     10.59% # attempts to use FU when none available (Count)
system.cpu.statFuBusy::SimdAddAcc                   0      0.00%     10.59% # attempts to use FU when none available (Count)
system.cpu.statFuBusy::SimdAlu                     39      0.00%     10.59% # attempts to use FU when none available (Count)
system.cpu.statFuBusy::SimdCmp                      0      0.00%     10.59% # attempts to use FU when none available (Count)
system.cpu.statFuBusy::SimdCvt                      1      0.00%     10.59% # attempts to use FU when none available (Count)
system.cpu.statFuBusy::SimdMisc                     0      0.00%     10.59% # attempts to use FU when none available (Count)
system.cpu.statFuBusy::SimdMult                     0      0.00%     10.59% # attempts to use FU when none available (Count)
system.cpu.statFuBusy::SimdMultAcc                  0      0.00%     10.59% # attempts to use FU when none available (Count)
system.cpu.statFuBusy::SimdShift                    0      0.00%     10.59% # attempts to use FU when none available (Count)
system.cpu.statFuBusy::SimdShiftAcc                 0      0.00%     10.59% # attempts to use FU when none available (Count)
system.cpu.statFuBusy::SimdDiv                      0      0.00%     10.59% # attempts to use FU when none available (Count)
system.cpu.statFuBusy::SimdSqrt                     0      0.00%     10.59% # attempts to use FU when none available (Count)
system.cpu.statFuBusy::SimdFloatAdd                 0      0.00%     10.59% # attempts to use FU when none available (Count)
system.cpu.statFuBusy::SimdFloatAlu                 0      0.00%     10.59% # attempts to use FU when none available (Count)
system.cpu.statFuBusy::SimdFloatCmp                 0      0.00%     10.59% # attempts to use FU when none available (Count)
system.cpu.statFuBusy::SimdFloatCvt                 0      0.00%     10.59% # attempts to use FU when none available (Count)
system.cpu.statFuBusy::SimdFloatDiv                 0      0.00%     10.59% # attempts to use FU when none available (Count)
system.cpu.statFuBusy::SimdFloatMisc                0      0.00%     10.59% # attempts to use FU when none available (Count)
system.cpu.statFuBusy::SimdFloatMult                0      0.00%     10.59% # attempts to use FU when none available (Count)
system.cpu.statFuBusy::SimdFloatMultAcc             0      0.00%     10.59% # attempts to use FU when none available (Count)
system.cpu.statFuBusy::SimdFloatSqrt                0      0.00%     10.59% # attempts to use FU when none available (Count)
system.cpu.statFuBusy::SimdReduceAdd                0      0.00%     10.59% # attempts to use FU when none available (Count)
system.cpu.statFuBusy::SimdReduceAlu                0      0.00%     10.59% # attempts to use FU when none available (Count)
system.cpu.statFuBusy::SimdReduceCmp                0      0.00%     10.59% # attempts to use FU when none available (Count)
system.cpu.statFuBusy::SimdFloatReduceAdd            0      0.00%     10.59% # attempts to use FU when none available (Count)
system.cpu.statFuBusy::SimdFloatReduceCmp            0      0.00%     10.59% # attempts to use FU when none available (Count)
system.cpu.statFuBusy::SimdAes                      0      0.00%     10.59% # attempts to use FU when none available (Count)
system.cpu.statFuBusy::SimdAesMix                   0      0.00%     10.59% # attempts to use FU when none available (Count)
system.cpu.statFuBusy::SimdSha1Hash                 0      0.00%     10.59% # attempts to use FU when none available (Count)
system.cpu.statFuBusy::SimdSha1Hash2                0      0.00%     10.59% # attempts to use FU when none available (Count)
system.cpu.statFuBusy::SimdSha256Hash               0      0.00%     10.59% # attempts to use FU when none available (Count)
system.cpu.statFuBusy::SimdSha256Hash2              0      0.00%     10.59% # attempts to use FU when none available (Count)
system.cpu.statFuBusy::SimdShaSigma2                0      0.00%     10.59% # attempts to use FU when none available (Count)
system.cpu.statFuBusy::SimdShaSigma3                0      0.00%     10.59% # attempts to use FU when none available (Count)
system.cpu.statFuBusy::SimdPredAlu                  0      0.00%     10.59% # attempts to use FU when none available (Count)
system.cpu.statFuBusy::MemRead               12316420     74.54%     85.13% # attempts to use FU when none available (Count)
system.cpu.statFuBusy::MemWrite               2456532     14.87%    100.00% # attempts to use FU when none available (Count)
system.cpu.statFuBusy::FloatMemRead                38      0.00%    100.00% # attempts to use FU when none available (Count)
system.cpu.statFuBusy::FloatMemWrite               45      0.00%    100.00% # attempts to use FU when none available (Count)
system.cpu.statFuBusy::IprAccess                    0      0.00%    100.00% # attempts to use FU when none available (Count)
system.cpu.statFuBusy::InstPrefetch                 0      0.00%    100.00% # attempts to use FU when none available (Count)
system.cpu.statIssuedInstType_0::No_OpClass     11990949     24.70%     24.70% # Number of instructions issued per FU type, per thread (Count)
system.cpu.statIssuedInstType_0::IntAlu       9905709     20.41%     45.11% # Number of instructions issued per FU type, per thread (Count)
system.cpu.statIssuedInstType_0::IntMult           13      0.00%     45.11% # Number of instructions issued per FU type, per thread (Count)
system.cpu.statIssuedInstType_0::IntDiv            39      0.00%     45.11% # Number of instructions issued per FU type, per thread (Count)
system.cpu.statIssuedInstType_0::FloatAdd           45      0.00%     45.11% # Number of instructions issued per FU type, per thread (Count)
system.cpu.statIssuedInstType_0::FloatCmp            0      0.00%     45.11% # Number of instructions issued per FU type, per thread (Count)
system.cpu.statIssuedInstType_0::FloatCvt            0      0.00%     45.11% # Number of instructions issued per FU type, per thread (Count)
system.cpu.statIssuedInstType_0::FloatMult            0      0.00%     45.11% # Number of instructions issued per FU type, per thread (Count)
system.cpu.statIssuedInstType_0::FloatMultAcc            0      0.00%     45.11% # Number of instructions issued per FU type, per thread (Count)
system.cpu.statIssuedInstType_0::FloatDiv            0      0.00%     45.11% # Number of instructions issued per FU type, per thread (Count)
system.cpu.statIssuedInstType_0::FloatMisc            0      0.00%     45.11% # Number of instructions issued per FU type, per thread (Count)
system.cpu.statIssuedInstType_0::FloatSqrt            0      0.00%     45.11% # Number of instructions issued per FU type, per thread (Count)
system.cpu.statIssuedInstType_0::SimdAdd            0      0.00%     45.11% # Number of instructions issued per FU type, per thread (Count)
system.cpu.statIssuedInstType_0::SimdAddAcc            0      0.00%     45.11% # Number of instructions issued per FU type, per thread (Count)
system.cpu.statIssuedInstType_0::SimdAlu          118      0.00%     45.11% # Number of instructions issued per FU type, per thread (Count)
system.cpu.statIssuedInstType_0::SimdCmp            0      0.00%     45.11% # Number of instructions issued per FU type, per thread (Count)
system.cpu.statIssuedInstType_0::SimdCvt           64      0.00%     45.11% # Number of instructions issued per FU type, per thread (Count)
system.cpu.statIssuedInstType_0::SimdMisc          331      0.00%     45.11% # Number of instructions issued per FU type, per thread (Count)
system.cpu.statIssuedInstType_0::SimdMult            0      0.00%     45.11% # Number of instructions issued per FU type, per thread (Count)
system.cpu.statIssuedInstType_0::SimdMultAcc            0      0.00%     45.11% # Number of instructions issued per FU type, per thread (Count)
system.cpu.statIssuedInstType_0::SimdShift            0      0.00%     45.11% # Number of instructions issued per FU type, per thread (Count)
system.cpu.statIssuedInstType_0::SimdShiftAcc            0      0.00%     45.11% # Number of instructions issued per FU type, per thread (Count)
system.cpu.statIssuedInstType_0::SimdDiv            0      0.00%     45.11% # Number of instructions issued per FU type, per thread (Count)
system.cpu.statIssuedInstType_0::SimdSqrt            0      0.00%     45.11% # Number of instructions issued per FU type, per thread (Count)
system.cpu.statIssuedInstType_0::SimdFloatAdd            0      0.00%     45.11% # Number of instructions issued per FU type, per thread (Count)
system.cpu.statIssuedInstType_0::SimdFloatAlu            0      0.00%     45.11% # Number of instructions issued per FU type, per thread (Count)
system.cpu.statIssuedInstType_0::SimdFloatCmp            0      0.00%     45.11% # Number of instructions issued per FU type, per thread (Count)
system.cpu.statIssuedInstType_0::SimdFloatCvt            0      0.00%     45.11% # Number of instructions issued per FU type, per thread (Count)
system.cpu.statIssuedInstType_0::SimdFloatDiv            0      0.00%     45.11% # Number of instructions issued per FU type, per thread (Count)
system.cpu.statIssuedInstType_0::SimdFloatMisc            0      0.00%     45.11% # Number of instructions issued per FU type, per thread (Count)
system.cpu.statIssuedInstType_0::SimdFloatMult            0      0.00%     45.11% # Number of instructions issued per FU type, per thread (Count)
system.cpu.statIssuedInstType_0::SimdFloatMultAcc            0      0.00%     45.11% # Number of instructions issued per FU type, per thread (Count)
system.cpu.statIssuedInstType_0::SimdFloatSqrt            0      0.00%     45.11% # Number of instructions issued per FU type, per thread (Count)
system.cpu.statIssuedInstType_0::SimdReduceAdd            0      0.00%     45.11% # Number of instructions issued per FU type, per thread (Count)
system.cpu.statIssuedInstType_0::SimdReduceAlu            0      0.00%     45.11% # Number of instructions issued per FU type, per thread (Count)
system.cpu.statIssuedInstType_0::SimdReduceCmp            0      0.00%     45.11% # Number of instructions issued per FU type, per thread (Count)
system.cpu.statIssuedInstType_0::SimdFloatReduceAdd            0      0.00%     45.11% # Number of instructions issued per FU type, per thread (Count)
system.cpu.statIssuedInstType_0::SimdFloatReduceCmp            0      0.00%     45.11% # Number of instructions issued per FU type, per thread (Count)
system.cpu.statIssuedInstType_0::SimdAes            0      0.00%     45.11% # Number of instructions issued per FU type, per thread (Count)
system.cpu.statIssuedInstType_0::SimdAesMix            0      0.00%     45.11% # Number of instructions issued per FU type, per thread (Count)
system.cpu.statIssuedInstType_0::SimdSha1Hash            0      0.00%     45.11% # Number of instructions issued per FU type, per thread (Count)
system.cpu.statIssuedInstType_0::SimdSha1Hash2            0      0.00%     45.11% # Number of instructions issued per FU type, per thread (Count)
system.cpu.statIssuedInstType_0::SimdSha256Hash            0      0.00%     45.11% # Number of instructions issued per FU type, per thread (Count)
system.cpu.statIssuedInstType_0::SimdSha256Hash2            0      0.00%     45.11% # Number of instructions issued per FU type, per thread (Count)
system.cpu.statIssuedInstType_0::SimdShaSigma2            0      0.00%     45.11% # Number of instructions issued per FU type, per thread (Count)
system.cpu.statIssuedInstType_0::SimdShaSigma3            0      0.00%     45.11% # Number of instructions issued per FU type, per thread (Count)
system.cpu.statIssuedInstType_0::SimdPredAlu            0      0.00%     45.11% # Number of instructions issued per FU type, per thread (Count)
system.cpu.statIssuedInstType_0::MemRead     13982982     28.81%     73.92% # Number of instructions issued per FU type, per thread (Count)
system.cpu.statIssuedInstType_0::MemWrite     12660568     26.08%    100.00% # Number of instructions issued per FU type, per thread (Count)
system.cpu.statIssuedInstType_0::FloatMemRead           58      0.00%    100.00% # Number of instructions issued per FU type, per thread (Count)
system.cpu.statIssuedInstType_0::FloatMemWrite          179      0.00%    100.00% # Number of instructions issued per FU type, per thread (Count)
system.cpu.statIssuedInstType_0::IprAccess            0      0.00%    100.00% # Number of instructions issued per FU type, per thread (Count)
system.cpu.statIssuedInstType_0::InstPrefetch            0      0.00%    100.00% # Number of instructions issued per FU type, per thread (Count)
system.cpu.statIssuedInstType_0::total       48541055                       # Number of instructions issued per FU type, per thread (Count)
system.cpu.issueRate                         1.072569                       # Inst issue rate ((Count/Cycle))
system.cpu.fuBusy                            16523516                       # FU busy when requested (Count)
system.cpu.fuBusyRate                        0.340403                       # FU busy rate (busy events/executed inst) ((Count/Count))
system.cpu.intInstQueueReads                158853043                       # Number of integer instruction queue reads (Count)
system.cpu.intInstQueueWrites                93165095                       # Number of integer instruction queue writes (Count)
system.cpu.intInstQueueWakeupAccesses        36096990                       # Number of integer instruction queue wakeup accesses (Count)
system.cpu.fpInstQueueReads                      1808                       # Number of floating instruction queue reads (Count)
system.cpu.fpInstQueueWrites                     1637                       # Number of floating instruction queue writes (Count)
system.cpu.fpInstQueueWakeupAccesses              816                       # Number of floating instruction queue wakeup accesses (Count)
system.cpu.vecInstQueueReads                        0                       # Number of vector instruction queue reads (Count)
system.cpu.vecInstQueueWrites                       0                       # Number of vector instruction queue writes (Count)
system.cpu.vecInstQueueWakeupAccesses               0                       # Number of vector instruction queue wakeup accesses (Count)
system.cpu.intAluAccesses                    53072662                       # Number of integer alu accesses (Count)
system.cpu.fpAluAccesses                          960                       # Number of floating point alu accesses (Count)
system.cpu.vecAluAccesses                           0                       # Number of vector alu accesses (Count)
system.cpu.numInsts                          48451958                       # Number of executed instructions (Count)
system.cpu.numLoadInsts                      13938735                       # Number of load instructions executed (Count)
system.cpu.numSquashedInsts                     89092                       # Number of squashed instructions skipped in execute (Count)
system.cpu.numSwp                                   0                       # Number of swp insts executed (Count)
system.cpu.numNop                                   0                       # Number of nop insts executed (Count)
system.cpu.numRefs                           26555316                       # Number of memory reference insts executed (Count)
system.cpu.numBranches                        1101509                       # Number of branches executed (Count)
system.cpu.numStoreInsts                     12616581                       # Number of stores executed (Count)
system.cpu.numRate                           1.070601                       # Inst execution rate ((Count/Cycle))
system.cpu.timesIdled                             248                       # Number of times that the entire CPU went into an idle state and unscheduled itself (Count)
system.cpu.idleCycles                           11565                       # Total number of cycles that the CPU has spent unscheduled due to idling (Cycle)
system.cpu.committedInsts                     5000000                       # Number of Instructions Simulated (Count)
system.cpu.committedOps                       6698741                       # Number of Ops (including micro ops) Simulated (Count)
system.cpu.cpi                               9.051361                       # CPI: Cycles Per Instruction ((Cycle/Count))
system.cpu.totalCpi                          9.051361                       # CPI: Total CPI of All Threads ((Cycle/Count))
system.cpu.ipc                               0.110481                       # IPC: Instructions Per Cycle ((Count/Cycle))
system.cpu.totalIpc                          0.110481                       # IPC: Total IPC of All Threads ((Count/Cycle))
system.cpu.intRegfileReads                   52191813                       # Number of integer regfile reads (Count)
system.cpu.intRegfileWrites                  22119976                       # Number of integer regfile writes (Count)
system.cpu.fpRegfileReads                        1298                       # Number of floating regfile reads (Count)
system.cpu.fpRegfileWrites                        583                       # Number of floating regfile writes (Count)
system.cpu.ccRegfileReads                     6601847                       # number of cc regfile reads (Count)
system.cpu.ccRegfileWrites                    6235068                       # number of cc regfile writes (Count)
system.cpu.miscRegfileReads                  28755576                       # number of misc regfile reads (Count)
system.cpu.MemDepUnit__0.insertedLoads       13959929                       # Number of loads inserted to the mem dependence unit. (Count)
system.cpu.MemDepUnit__0.insertedStores      12663152                       # Number of stores inserted to the mem dependence unit. (Count)
system.cpu.MemDepUnit__0.conflictingLoads      1917646                       # Number of conflicting loads. (Count)
system.cpu.MemDepUnit__0.conflictingStores       295051                       # Number of conflicting stores. (Count)
system.cpu.MemDepUnit__1.insertedLoads              0                       # Number of loads inserted to the mem dependence unit. (Count)
system.cpu.MemDepUnit__1.insertedStores             0                       # Number of stores inserted to the mem dependence unit. (Count)
system.cpu.MemDepUnit__1.conflictingLoads            0                       # Number of conflicting loads. (Count)
system.cpu.MemDepUnit__1.conflictingStores            0                       # Number of conflicting stores. (Count)
system.cpu.MemDepUnit__2.insertedLoads              0                       # Number of loads inserted to the mem dependence unit. (Count)
system.cpu.MemDepUnit__2.insertedStores             0                       # Number of stores inserted to the mem dependence unit. (Count)
system.cpu.MemDepUnit__2.conflictingLoads            0                       # Number of conflicting loads. (Count)
system.cpu.MemDepUnit__2.conflictingStores            0                       # Number of conflicting stores. (Count)
system.cpu.MemDepUnit__3.insertedLoads              0                       # Number of loads inserted to the mem dependence unit. (Count)
system.cpu.MemDepUnit__3.insertedStores             0                       # Number of stores inserted to the mem dependence unit. (Count)
system.cpu.MemDepUnit__3.conflictingLoads            0                       # Number of conflicting loads. (Count)
system.cpu.MemDepUnit__3.conflictingStores            0                       # Number of conflicting stores. (Count)
system.cpu.branchPred.lookups                 1903638                       # Number of BP lookups (Count)
system.cpu.branchPred.condPredicted           1901410                       # Number of conditional branches predicted (Count)
system.cpu.branchPred.condIncorrect               826                       # Number of conditional branches incorrect (Count)
system.cpu.branchPred.BTBLookups              1895709                       # Number of BTB lookups (Count)
system.cpu.branchPred.BTBHits                 1894676                       # Number of BTB hits (Count)
system.cpu.branchPred.BTBHitRatio            0.999455                       # BTB Hit Ratio (Ratio)
system.cpu.branchPred.RASUsed                     784                       # Number of times the RAS was used to get a target. (Count)
system.cpu.branchPred.RASIncorrect                  2                       # Number of incorrect RAS predictions. (Count)
system.cpu.branchPred.indirectLookups             176                       # Number of indirect predictor lookups. (Count)
system.cpu.branchPred.indirectHits                 16                       # Number of indirect target hits. (Count)
system.cpu.branchPred.indirectMisses              160                       # Number of indirect misses. (Count)
system.cpu.branchPred.indirectMispredicted           68                       # Number of mispredicted indirect branches. (Count)
system.cpu.commit.commitSquashedInsts        41129470                       # The number of squashed insts skipped by commit (Count)
system.cpu.commit.commitNonSpecStalls           87560                       # The number of times commit has been forced to stall to communicate backwards (Count)
system.cpu.commit.branchMispredicts               579                       # The number of times a branch was mispredicted (Count)
system.cpu.commit.numCommittedDist::samples     39941040                       # Number of insts commited each cycle (Count)
system.cpu.commit.numCommittedDist::mean     0.167716                       # Number of insts commited each cycle (Count)
system.cpu.commit.numCommittedDist::stdev     0.848015                       # Number of insts commited each cycle (Count)
system.cpu.commit.numCommittedDist::underflows            0      0.00%      0.00% # Number of insts commited each cycle (Count)
system.cpu.commit.numCommittedDist::0        36969207     92.56%     92.56% # Number of insts commited each cycle (Count)
system.cpu.commit.numCommittedDist::1         1776954      4.45%     97.01% # Number of insts commited each cycle (Count)
system.cpu.commit.numCommittedDist::2          495578      1.24%     98.25% # Number of insts commited each cycle (Count)
system.cpu.commit.numCommittedDist::3          296477      0.74%     98.99% # Number of insts commited each cycle (Count)
system.cpu.commit.numCommittedDist::4            2747      0.01%     99.00% # Number of insts commited each cycle (Count)
system.cpu.commit.numCommittedDist::5           52823      0.13%     99.13% # Number of insts commited each cycle (Count)
system.cpu.commit.numCommittedDist::6            4456      0.01%     99.14% # Number of insts commited each cycle (Count)
system.cpu.commit.numCommittedDist::7            3023      0.01%     99.15% # Number of insts commited each cycle (Count)
system.cpu.commit.numCommittedDist::8          339775      0.85%    100.00% # Number of insts commited each cycle (Count)
system.cpu.commit.numCommittedDist::overflows            0      0.00%    100.00% # Number of insts commited each cycle (Count)
system.cpu.commit.numCommittedDist::min_value            0                       # Number of insts commited each cycle (Count)
system.cpu.commit.numCommittedDist::max_value            8                       # Number of insts commited each cycle (Count)
system.cpu.commit.numCommittedDist::total     39941040                       # Number of insts commited each cycle (Count)
system.cpu.commit.instsCommitted              5000000                       # Number of instructions committed (Count)
system.cpu.commit.opsCommitted                6698741                       # Number of ops (including micro ops) committed (Count)
system.cpu.commit.memRefs                     3129117                       # Number of memory references committed (Count)
system.cpu.commit.loads                       1966361                       # Number of loads committed (Count)
system.cpu.commit.amos                              0                       # Number of atomic instructions committed (Count)
system.cpu.commit.membars                          24                       # Number of memory barriers committed (Count)
system.cpu.commit.branches                     252733                       # Number of branches committed (Count)
system.cpu.commit.vectorInstructions                0                       # Number of committed Vector instructions. (Count)
system.cpu.commit.floating                        537                       # Number of committed floating point instructions. (Count)
system.cpu.commit.integer                     6608845                       # Number of committed integer instructions. (Count)
system.cpu.commit.functionCalls                   207                       # Number of function calls committed. (Count)
system.cpu.commit.committedInstType_0::No_OpClass        87551      1.31%      1.31% # Class of committed instruction (Count)
system.cpu.commit.committedInstType_0::IntAlu      3481723     51.98%     53.28% # Class of committed instruction (Count)
system.cpu.commit.committedInstType_0::IntMult           13      0.00%     53.28% # Class of committed instruction (Count)
system.cpu.commit.committedInstType_0::IntDiv           35      0.00%     53.28% # Class of committed instruction (Count)
system.cpu.commit.committedInstType_0::FloatAdd           11      0.00%     53.28% # Class of committed instruction (Count)
system.cpu.commit.committedInstType_0::FloatCmp            0      0.00%     53.28% # Class of committed instruction (Count)
system.cpu.commit.committedInstType_0::FloatCvt            0      0.00%     53.28% # Class of committed instruction (Count)
system.cpu.commit.committedInstType_0::FloatMult            0      0.00%     53.28% # Class of committed instruction (Count)
system.cpu.commit.committedInstType_0::FloatMultAcc            0      0.00%     53.28% # Class of committed instruction (Count)
system.cpu.commit.committedInstType_0::FloatDiv            0      0.00%     53.28% # Class of committed instruction (Count)
system.cpu.commit.committedInstType_0::FloatMisc            0      0.00%     53.28% # Class of committed instruction (Count)
system.cpu.commit.committedInstType_0::FloatSqrt            0      0.00%     53.28% # Class of committed instruction (Count)
system.cpu.commit.committedInstType_0::SimdAdd            0      0.00%     53.28% # Class of committed instruction (Count)
system.cpu.commit.committedInstType_0::SimdAddAcc            0      0.00%     53.28% # Class of committed instruction (Count)
system.cpu.commit.committedInstType_0::SimdAlu           90      0.00%     53.28% # Class of committed instruction (Count)
system.cpu.commit.committedInstType_0::SimdCmp            0      0.00%     53.28% # Class of committed instruction (Count)
system.cpu.commit.committedInstType_0::SimdCvt           62      0.00%     53.29% # Class of committed instruction (Count)
system.cpu.commit.committedInstType_0::SimdMisc          139      0.00%     53.29% # Class of committed instruction (Count)
system.cpu.commit.committedInstType_0::SimdMult            0      0.00%     53.29% # Class of committed instruction (Count)
system.cpu.commit.committedInstType_0::SimdMultAcc            0      0.00%     53.29% # Class of committed instruction (Count)
system.cpu.commit.committedInstType_0::SimdShift            0      0.00%     53.29% # Class of committed instruction (Count)
system.cpu.commit.committedInstType_0::SimdShiftAcc            0      0.00%     53.29% # Class of committed instruction (Count)
system.cpu.commit.committedInstType_0::SimdDiv            0      0.00%     53.29% # Class of committed instruction (Count)
system.cpu.commit.committedInstType_0::SimdSqrt            0      0.00%     53.29% # Class of committed instruction (Count)
system.cpu.commit.committedInstType_0::SimdFloatAdd            0      0.00%     53.29% # Class of committed instruction (Count)
system.cpu.commit.committedInstType_0::SimdFloatAlu            0      0.00%     53.29% # Class of committed instruction (Count)
system.cpu.commit.committedInstType_0::SimdFloatCmp            0      0.00%     53.29% # Class of committed instruction (Count)
system.cpu.commit.committedInstType_0::SimdFloatCvt            0      0.00%     53.29% # Class of committed instruction (Count)
system.cpu.commit.committedInstType_0::SimdFloatDiv            0      0.00%     53.29% # Class of committed instruction (Count)
system.cpu.commit.committedInstType_0::SimdFloatMisc            0      0.00%     53.29% # Class of committed instruction (Count)
system.cpu.commit.committedInstType_0::SimdFloatMult            0      0.00%     53.29% # Class of committed instruction (Count)
system.cpu.commit.committedInstType_0::SimdFloatMultAcc            0      0.00%     53.29% # Class of committed instruction (Count)
system.cpu.commit.committedInstType_0::SimdFloatSqrt            0      0.00%     53.29% # Class of committed instruction (Count)
system.cpu.commit.committedInstType_0::SimdReduceAdd            0      0.00%     53.29% # Class of committed instruction (Count)
system.cpu.commit.committedInstType_0::SimdReduceAlu            0      0.00%     53.29% # Class of committed instruction (Count)
system.cpu.commit.committedInstType_0::SimdReduceCmp            0      0.00%     53.29% # Class of committed instruction (Count)
system.cpu.commit.committedInstType_0::SimdFloatReduceAdd            0      0.00%     53.29% # Class of committed instruction (Count)
system.cpu.commit.committedInstType_0::SimdFloatReduceCmp            0      0.00%     53.29% # Class of committed instruction (Count)
system.cpu.commit.committedInstType_0::SimdAes            0      0.00%     53.29% # Class of committed instruction (Count)
system.cpu.commit.committedInstType_0::SimdAesMix            0      0.00%     53.29% # Class of committed instruction (Count)
system.cpu.commit.committedInstType_0::SimdSha1Hash            0      0.00%     53.29% # Class of committed instruction (Count)
system.cpu.commit.committedInstType_0::SimdSha1Hash2            0      0.00%     53.29% # Class of committed instruction (Count)
system.cpu.commit.committedInstType_0::SimdSha256Hash            0      0.00%     53.29% # Class of committed instruction (Count)
system.cpu.commit.committedInstType_0::SimdSha256Hash2            0      0.00%     53.29% # Class of committed instruction (Count)
system.cpu.commit.committedInstType_0::SimdShaSigma2            0      0.00%     53.29% # Class of committed instruction (Count)
system.cpu.commit.committedInstType_0::SimdShaSigma3            0      0.00%     53.29% # Class of committed instruction (Count)
system.cpu.commit.committedInstType_0::SimdPredAlu            0      0.00%     53.29% # Class of committed instruction (Count)
system.cpu.commit.committedInstType_0::MemRead      1966311     29.35%     82.64% # Class of committed instruction (Count)
system.cpu.commit.committedInstType_0::MemWrite      1162592     17.36%    100.00% # Class of committed instruction (Count)
system.cpu.commit.committedInstType_0::FloatMemRead           50      0.00%    100.00% # Class of committed instruction (Count)
system.cpu.commit.committedInstType_0::FloatMemWrite          164      0.00%    100.00% # Class of committed instruction (Count)
system.cpu.commit.committedInstType_0::IprAccess            0      0.00%    100.00% # Class of committed instruction (Count)
system.cpu.commit.committedInstType_0::InstPrefetch            0      0.00%    100.00% # Class of committed instruction (Count)
system.cpu.commit.committedInstType_0::total      6698741                       # Class of committed instruction (Count)
system.cpu.commit.commitEligibleSamples        339775                       # number cycles where commit BW limit reached (Cycle)
system.cpu.dcache.demandHits::cpu.data       13712854                       # number of demand (read+write) hits (Count)
system.cpu.dcache.demandHits::total          13712854                       # number of demand (read+write) hits (Count)
system.cpu.dcache.overallHits::cpu.data      13712854                       # number of overall hits (Count)
system.cpu.dcache.overallHits::total         13712854                       # number of overall hits (Count)
system.cpu.dcache.demandMisses::cpu.data       411419                       # number of demand (read+write) misses (Count)
system.cpu.dcache.demandMisses::total          411419                       # number of demand (read+write) misses (Count)
system.cpu.dcache.overallMisses::cpu.data       427803                       # number of overall misses (Count)
system.cpu.dcache.overallMisses::total         427803                       # number of overall misses (Count)
system.cpu.dcache.demandMissLatency::cpu.data  26697254999                       # number of demand (read+write) miss ticks (Tick)
system.cpu.dcache.demandMissLatency::total  26697254999                       # number of demand (read+write) miss ticks (Tick)
system.cpu.dcache.overallMissLatency::cpu.data  26697254999                       # number of overall miss ticks (Tick)
system.cpu.dcache.overallMissLatency::total  26697254999                       # number of overall miss ticks (Tick)
system.cpu.dcache.demandAccesses::cpu.data     14124273                       # number of demand (read+write) accesses (Count)
system.cpu.dcache.demandAccesses::total      14124273                       # number of demand (read+write) accesses (Count)
system.cpu.dcache.overallAccesses::cpu.data     14140657                       # number of overall (read+write) accesses (Count)
system.cpu.dcache.overallAccesses::total     14140657                       # number of overall (read+write) accesses (Count)
system.cpu.dcache.demandMissRate::cpu.data     0.029129                       # miss rate for demand accesses (Ratio)
system.cpu.dcache.demandMissRate::total      0.029129                       # miss rate for demand accesses (Ratio)
system.cpu.dcache.overallMissRate::cpu.data     0.030253                       # miss rate for overall accesses (Ratio)
system.cpu.dcache.overallMissRate::total     0.030253                       # miss rate for overall accesses (Ratio)
system.cpu.dcache.demandAvgMissLatency::cpu.data 64890.671065                       # average overall miss latency in ticks ((Tick/Count))
system.cpu.dcache.demandAvgMissLatency::total 64890.671065                       # average overall miss latency in ticks ((Tick/Count))
system.cpu.dcache.overallAvgMissLatency::cpu.data 62405.488038                       # average overall miss latency ((Tick/Count))
system.cpu.dcache.overallAvgMissLatency::total 62405.488038                       # average overall miss latency ((Tick/Count))
system.cpu.dcache.blockedCycles::no_mshrs       273386                       # number of cycles access was blocked (Cycle)
system.cpu.dcache.blockedCycles::no_targets         3550                       # number of cycles access was blocked (Cycle)
system.cpu.dcache.blockedCauses::no_mshrs         8031                       # number of times access was blocked (Count)
system.cpu.dcache.blockedCauses::no_targets          184                       # number of times access was blocked (Count)
system.cpu.dcache.avgBlocked::no_mshrs      34.041340                       # average number of cycles each access was blocked ((Cycle/Count))
system.cpu.dcache.avgBlocked::no_targets    19.293478                       # average number of cycles each access was blocked ((Cycle/Count))
system.cpu.dcache.writebacks::writebacks       292217                       # number of writebacks (Count)
system.cpu.dcache.writebacks::total            292217                       # number of writebacks (Count)
system.cpu.dcache.demandMshrHits::cpu.data       182416                       # number of demand (read+write) MSHR hits (Count)
system.cpu.dcache.demandMshrHits::total        182416                       # number of demand (read+write) MSHR hits (Count)
system.cpu.dcache.overallMshrHits::cpu.data       182416                       # number of overall MSHR hits (Count)
system.cpu.dcache.overallMshrHits::total       182416                       # number of overall MSHR hits (Count)
system.cpu.dcache.demandMshrMisses::cpu.data       229003                       # number of demand (read+write) MSHR misses (Count)
system.cpu.dcache.demandMshrMisses::total       229003                       # number of demand (read+write) MSHR misses (Count)
system.cpu.dcache.overallMshrMisses::cpu.data       245387                       # number of overall MSHR misses (Count)
system.cpu.dcache.overallMshrMisses::cpu.dcache.prefetcher       143382                       # number of overall MSHR misses (Count)
system.cpu.dcache.overallMshrMisses::total       388769                       # number of overall MSHR misses (Count)
system.cpu.dcache.demandMshrMissLatency::cpu.data  16488445999                       # number of demand (read+write) MSHR miss ticks (Tick)
system.cpu.dcache.demandMshrMissLatency::total  16488445999                       # number of demand (read+write) MSHR miss ticks (Tick)
system.cpu.dcache.overallMshrMissLatency::cpu.data  17949036999                       # number of overall MSHR miss ticks (Tick)
system.cpu.dcache.overallMshrMissLatency::cpu.dcache.prefetcher  10496420503                       # number of overall MSHR miss ticks (Tick)
system.cpu.dcache.overallMshrMissLatency::total  28445457502                       # number of overall MSHR miss ticks (Tick)
system.cpu.dcache.demandMshrMissRate::cpu.data     0.016213                       # mshr miss ratio for demand accesses (Ratio)
system.cpu.dcache.demandMshrMissRate::total     0.016213                       # mshr miss ratio for demand accesses (Ratio)
system.cpu.dcache.overallMshrMissRate::cpu.data     0.017353                       # mshr miss ratio for overall accesses (Ratio)
system.cpu.dcache.overallMshrMissRate::cpu.dcache.prefetcher          inf                       # mshr miss ratio for overall accesses (Ratio)
system.cpu.dcache.overallMshrMissRate::total     0.027493                       # mshr miss ratio for overall accesses (Ratio)
system.cpu.dcache.demandAvgMshrMissLatency::cpu.data 72001.004349                       # average overall mshr miss latency ((Tick/Count))
system.cpu.dcache.demandAvgMshrMissLatency::total 72001.004349                       # average overall mshr miss latency ((Tick/Count))
system.cpu.dcache.overallAvgMshrMissLatency::cpu.data 73145.834942                       # average overall mshr miss latency ((Tick/Count))
system.cpu.dcache.overallAvgMshrMissLatency::cpu.dcache.prefetcher 73205.984733                       # average overall mshr miss latency ((Tick/Count))
system.cpu.dcache.overallAvgMshrMissLatency::total 73168.018803                       # average overall mshr miss latency ((Tick/Count))
system.cpu.dcache.replacements                 387745                       # number of replacements (Count)
system.cpu.dcache.HardPFReq.mshrMisses::cpu.dcache.prefetcher       143382                       # number of HardPFReq MSHR misses (Count)
system.cpu.dcache.HardPFReq.mshrMisses::total       143382                       # number of HardPFReq MSHR misses (Count)
system.cpu.dcache.HardPFReq.mshrMissLatency::cpu.dcache.prefetcher  10496420503                       # number of HardPFReq MSHR miss ticks (Tick)
system.cpu.dcache.HardPFReq.mshrMissLatency::total  10496420503                       # number of HardPFReq MSHR miss ticks (Tick)
system.cpu.dcache.HardPFReq.mshrMissRate::cpu.dcache.prefetcher          inf                       # mshr miss rate for HardPFReq accesses (Ratio)
system.cpu.dcache.HardPFReq.mshrMissRate::total          inf                       # mshr miss rate for HardPFReq accesses (Ratio)
system.cpu.dcache.HardPFReq.avgMshrMissLatency::cpu.dcache.prefetcher 73205.984733                       # average HardPFReq mshr miss latency ((Tick/Count))
system.cpu.dcache.HardPFReq.avgMshrMissLatency::total 73205.984733                       # average HardPFReq mshr miss latency ((Tick/Count))
system.cpu.dcache.LockedRMWReadReq.hits::cpu.data           12                       # number of LockedRMWReadReq hits (Count)
system.cpu.dcache.LockedRMWReadReq.hits::total           12                       # number of LockedRMWReadReq hits (Count)
system.cpu.dcache.LockedRMWReadReq.accesses::cpu.data           12                       # number of LockedRMWReadReq accesses(hits+misses) (Count)
system.cpu.dcache.LockedRMWReadReq.accesses::total           12                       # number of LockedRMWReadReq accesses(hits+misses) (Count)
system.cpu.dcache.LockedRMWReadReq.mshrMissLatency::cpu.data       165000                       # number of LockedRMWReadReq MSHR miss ticks (Tick)
system.cpu.dcache.LockedRMWReadReq.mshrMissLatency::total       165000                       # number of LockedRMWReadReq MSHR miss ticks (Tick)
system.cpu.dcache.LockedRMWReadReq.avgMshrMissLatency::cpu.data          inf                       # average LockedRMWReadReq mshr miss latency ((Tick/Count))
system.cpu.dcache.LockedRMWReadReq.avgMshrMissLatency::total          inf                       # average LockedRMWReadReq mshr miss latency ((Tick/Count))
system.cpu.dcache.LockedRMWWriteReq.hits::cpu.data           12                       # number of LockedRMWWriteReq hits (Count)
system.cpu.dcache.LockedRMWWriteReq.hits::total           12                       # number of LockedRMWWriteReq hits (Count)
system.cpu.dcache.LockedRMWWriteReq.accesses::cpu.data           12                       # number of LockedRMWWriteReq accesses(hits+misses) (Count)
system.cpu.dcache.LockedRMWWriteReq.accesses::total           12                       # number of LockedRMWWriteReq accesses(hits+misses) (Count)
system.cpu.dcache.ReadReq.hits::cpu.data     12741656                       # number of ReadReq hits (Count)
system.cpu.dcache.ReadReq.hits::total        12741656                       # number of ReadReq hits (Count)
system.cpu.dcache.ReadReq.misses::cpu.data       219873                       # number of ReadReq misses (Count)
system.cpu.dcache.ReadReq.misses::total        219873                       # number of ReadReq misses (Count)
system.cpu.dcache.ReadReq.missLatency::cpu.data  10931934000                       # number of ReadReq miss ticks (Tick)
system.cpu.dcache.ReadReq.missLatency::total  10931934000                       # number of ReadReq miss ticks (Tick)
system.cpu.dcache.ReadReq.accesses::cpu.data     12961529                       # number of ReadReq accesses(hits+misses) (Count)
system.cpu.dcache.ReadReq.accesses::total     12961529                       # number of ReadReq accesses(hits+misses) (Count)
system.cpu.dcache.ReadReq.missRate::cpu.data     0.016964                       # miss rate for ReadReq accesses (Ratio)
system.cpu.dcache.ReadReq.missRate::total     0.016964                       # miss rate for ReadReq accesses (Ratio)
system.cpu.dcache.ReadReq.avgMissLatency::cpu.data 49719.310693                       # average ReadReq miss latency ((Tick/Count))
system.cpu.dcache.ReadReq.avgMissLatency::total 49719.310693                       # average ReadReq miss latency ((Tick/Count))
system.cpu.dcache.ReadReq.mshrHits::cpu.data       157706                       # number of ReadReq MSHR hits (Count)
system.cpu.dcache.ReadReq.mshrHits::total       157706                       # number of ReadReq MSHR hits (Count)
system.cpu.dcache.ReadReq.mshrMisses::cpu.data        62167                       # number of ReadReq MSHR misses (Count)
system.cpu.dcache.ReadReq.mshrMisses::total        62167                       # number of ReadReq MSHR misses (Count)
system.cpu.dcache.ReadReq.mshrMissLatency::cpu.data   3317166000                       # number of ReadReq MSHR miss ticks (Tick)
system.cpu.dcache.ReadReq.mshrMissLatency::total   3317166000                       # number of ReadReq MSHR miss ticks (Tick)
system.cpu.dcache.ReadReq.mshrMissRate::cpu.data     0.004796                       # mshr miss rate for ReadReq accesses (Ratio)
system.cpu.dcache.ReadReq.mshrMissRate::total     0.004796                       # mshr miss rate for ReadReq accesses (Ratio)
system.cpu.dcache.ReadReq.avgMshrMissLatency::cpu.data 53358.952499                       # average ReadReq mshr miss latency ((Tick/Count))
system.cpu.dcache.ReadReq.avgMshrMissLatency::total 53358.952499                       # average ReadReq mshr miss latency ((Tick/Count))
system.cpu.dcache.SoftPFReq.misses::cpu.data        16384                       # number of SoftPFReq misses (Count)
system.cpu.dcache.SoftPFReq.misses::total        16384                       # number of SoftPFReq misses (Count)
system.cpu.dcache.SoftPFReq.accesses::cpu.data        16384                       # number of SoftPFReq accesses(hits+misses) (Count)
system.cpu.dcache.SoftPFReq.accesses::total        16384                       # number of SoftPFReq accesses(hits+misses) (Count)
system.cpu.dcache.SoftPFReq.missRate::cpu.data            1                       # miss rate for SoftPFReq accesses (Ratio)
system.cpu.dcache.SoftPFReq.missRate::total            1                       # miss rate for SoftPFReq accesses (Ratio)
system.cpu.dcache.SoftPFReq.mshrMisses::cpu.data        16384                       # number of SoftPFReq MSHR misses (Count)
system.cpu.dcache.SoftPFReq.mshrMisses::total        16384                       # number of SoftPFReq MSHR misses (Count)
system.cpu.dcache.SoftPFReq.mshrMissLatency::cpu.data   1460591000                       # number of SoftPFReq MSHR miss ticks (Tick)
system.cpu.dcache.SoftPFReq.mshrMissLatency::total   1460591000                       # number of SoftPFReq MSHR miss ticks (Tick)
system.cpu.dcache.SoftPFReq.mshrMissRate::cpu.data            1                       # mshr miss rate for SoftPFReq accesses (Ratio)
system.cpu.dcache.SoftPFReq.mshrMissRate::total            1                       # mshr miss rate for SoftPFReq accesses (Ratio)
system.cpu.dcache.SoftPFReq.avgMshrMissLatency::cpu.data 89147.399902                       # average SoftPFReq mshr miss latency ((Tick/Count))
system.cpu.dcache.SoftPFReq.avgMshrMissLatency::total 89147.399902                       # average SoftPFReq mshr miss latency ((Tick/Count))
system.cpu.dcache.WriteReq.hits::cpu.data       971198                       # number of WriteReq hits (Count)
system.cpu.dcache.WriteReq.hits::total         971198                       # number of WriteReq hits (Count)
system.cpu.dcache.WriteReq.misses::cpu.data       191546                       # number of WriteReq misses (Count)
system.cpu.dcache.WriteReq.misses::total       191546                       # number of WriteReq misses (Count)
system.cpu.dcache.WriteReq.missLatency::cpu.data  15765320999                       # number of WriteReq miss ticks (Tick)
system.cpu.dcache.WriteReq.missLatency::total  15765320999                       # number of WriteReq miss ticks (Tick)
system.cpu.dcache.WriteReq.accesses::cpu.data      1162744                       # number of WriteReq accesses(hits+misses) (Count)
system.cpu.dcache.WriteReq.accesses::total      1162744                       # number of WriteReq accesses(hits+misses) (Count)
system.cpu.dcache.WriteReq.missRate::cpu.data     0.164736                       # miss rate for WriteReq accesses (Ratio)
system.cpu.dcache.WriteReq.missRate::total     0.164736                       # miss rate for WriteReq accesses (Ratio)
system.cpu.dcache.WriteReq.avgMissLatency::cpu.data 82305.665475                       # average WriteReq miss latency ((Tick/Count))
system.cpu.dcache.WriteReq.avgMissLatency::total 82305.665475                       # average WriteReq miss latency ((Tick/Count))
system.cpu.dcache.WriteReq.mshrHits::cpu.data        24710                       # number of WriteReq MSHR hits (Count)
system.cpu.dcache.WriteReq.mshrHits::total        24710                       # number of WriteReq MSHR hits (Count)
system.cpu.dcache.WriteReq.mshrMisses::cpu.data       166836                       # number of WriteReq MSHR misses (Count)
system.cpu.dcache.WriteReq.mshrMisses::total       166836                       # number of WriteReq MSHR misses (Count)
system.cpu.dcache.WriteReq.mshrMissLatency::cpu.data  13171279999                       # number of WriteReq MSHR miss ticks (Tick)
system.cpu.dcache.WriteReq.mshrMissLatency::total  13171279999                       # number of WriteReq MSHR miss ticks (Tick)
system.cpu.dcache.WriteReq.mshrMissRate::cpu.data     0.143485                       # mshr miss rate for WriteReq accesses (Ratio)
system.cpu.dcache.WriteReq.mshrMissRate::total     0.143485                       # mshr miss rate for WriteReq accesses (Ratio)
system.cpu.dcache.WriteReq.avgMshrMissLatency::cpu.data 78947.469365                       # average WriteReq mshr miss latency ((Tick/Count))
system.cpu.dcache.WriteReq.avgMshrMissLatency::total 78947.469365                       # average WriteReq mshr miss latency ((Tick/Count))
system.cpu.dcache.power_state.pwrStateResidencyTicks::UNDEFINED  45256793000                       # Cumulative time (in ticks) in various power states (Tick)
system.cpu.dcache.prefetcher.demandMshrMisses       229003                       # demands not covered by prefetchs (Count)
system.cpu.dcache.prefetcher.pfIssued          146618                       # number of hwpf issued (Count)
system.cpu.dcache.prefetcher.pfUnused               6                       # number of HardPF blocks evicted w/o reference (Count)
system.cpu.dcache.prefetcher.pfUseful          118606                       # number of useful prefetch (Count)
system.cpu.dcache.prefetcher.pfUsefulButMiss            0                       # number of hit on prefetch but cache block is not in an usable state (Count)
system.cpu.dcache.prefetcher.accuracy        0.808946                       # accuracy of the prefetcher (Count)
system.cpu.dcache.prefetcher.coverage        0.341205                       # coverage brought by this prefetcher (Count)
system.cpu.dcache.prefetcher.pfHitInCache         3236                       # number of prefetches hitting in cache (Count)
system.cpu.dcache.prefetcher.pfHitInMSHR            0                       # number of prefetches hitting in a MSHR (Count)
system.cpu.dcache.prefetcher.pfHitInWB              0                       # number of prefetches hit in the Write Buffer (Count)
system.cpu.dcache.prefetcher.pfLate              3236                       # number of late prefetches (hitting in cache, MSHR or WB) (Count)
system.cpu.dcache.prefetcher.pfIdentified       158973                       # number of prefetch candidates identified (Count)
system.cpu.dcache.prefetcher.pfBufferHit        11575                       # number of redundant prefetches already in prefetch queue (Count)
system.cpu.dcache.prefetcher.pfInCache              0                       # number of redundant prefetches already in cache/mshr dropped (Count)
system.cpu.dcache.prefetcher.pfRemovedDemand          117                       # number of prefetches dropped due to a demand for the same address (Count)
system.cpu.dcache.prefetcher.pfRemovedFull            0                       # number of prefetches dropped due to prefetch queue size (Count)
system.cpu.dcache.prefetcher.pfSpanPage        224303                       # number of prefetches that crossed the page (Count)
system.cpu.dcache.prefetcher.pfUsefulSpanPage            0                       # number of prefetches that is useful and crossed the page (Count)
system.cpu.dcache.prefetcher.power_state.pwrStateResidencyTicks::UNDEFINED  45256793000                       # Cumulative time (in ticks) in various power states (Tick)
system.cpu.dcache.tags.tagsInUse           760.439644                       # Average ticks per tags in use ((Tick/Count))
system.cpu.dcache.tags.totalRefs             14101647                       # Total number of references to valid blocks. (Count)
system.cpu.dcache.tags.sampledRefs             388769                       # Sample count of references to valid blocks. (Count)
system.cpu.dcache.tags.avgRefs              36.272560                       # Average number of references to valid blocks. ((Count/Count))
system.cpu.dcache.tags.warmupTick              200000                       # The tick when the warmup percentage was hit. (Tick)
system.cpu.dcache.tags.occupancies::cpu.data   472.987404                       # Average occupied blocks per tick, per requestor ((Count/Tick))
system.cpu.dcache.tags.occupancies::cpu.dcache.prefetcher   287.452241                       # Average occupied blocks per tick, per requestor ((Count/Tick))
system.cpu.dcache.tags.avgOccs::cpu.data     0.461902                       # Average percentage of cache occupancy ((Ratio/Tick))
system.cpu.dcache.tags.avgOccs::cpu.dcache.prefetcher     0.280715                       # Average percentage of cache occupancy ((Ratio/Tick))
system.cpu.dcache.tags.avgOccs::total        0.742617                       # Average percentage of cache occupancy ((Ratio/Tick))
system.cpu.dcache.tags.occupanciesTaskId::1022          416                       # Occupied blocks per task id (Count)
system.cpu.dcache.tags.occupanciesTaskId::1024          608                       # Occupied blocks per task id (Count)
system.cpu.dcache.tags.ageTaskId_1022::0           32                       # Occupied blocks per task id, per block age (Count)
system.cpu.dcache.tags.ageTaskId_1022::1          212                       # Occupied blocks per task id, per block age (Count)
system.cpu.dcache.tags.ageTaskId_1022::2          172                       # Occupied blocks per task id, per block age (Count)
system.cpu.dcache.tags.ageTaskId_1024::0           32                       # Occupied blocks per task id, per block age (Count)
system.cpu.dcache.tags.ageTaskId_1024::1          315                       # Occupied blocks per task id, per block age (Count)
system.cpu.dcache.tags.ageTaskId_1024::2          261                       # Occupied blocks per task id, per block age (Count)
system.cpu.dcache.tags.ratioOccsTaskId::1022     0.406250                       # Ratio of occupied blocks and all blocks, per task id (Ratio)
system.cpu.dcache.tags.ratioOccsTaskId::1024     0.593750                       # Ratio of occupied blocks and all blocks, per task id (Ratio)
system.cpu.dcache.tags.tagAccesses           56951493                       # Number of tag accesses (Count)
system.cpu.dcache.tags.dataAccesses          56951493                       # Number of data accesses (Count)
system.cpu.dcache.tags.power_state.pwrStateResidencyTicks::UNDEFINED  45256793000                       # Cumulative time (in ticks) in various power states (Tick)
system.cpu.decode.idleCycles                  2375630                       # Number of cycles decode is idle (Cycle)
system.cpu.decode.blockedCycles              34658063                       # Number of cycles decode is blocked (Cycle)
system.cpu.decode.runCycles                   5963751                       # Number of cycles decode is running (Cycle)
system.cpu.decode.unblockCycles               1497727                       # Number of cycles decode is unblocking (Cycle)
system.cpu.decode.squashCycles                 750068                       # Number of cycles decode is squashing (Cycle)
system.cpu.decode.branchResolved              1096175                       # Number of times decode resolved a branch (Count)
system.cpu.decode.branchMispred                   313                       # Number of times decode detected a branch misprediction (Count)
system.cpu.decode.decodedInsts               56764883                       # Number of instructions handled by decode (Count)
system.cpu.decode.squashedInsts                  1163                       # Number of squashed instructions handled by decode (Count)
system.cpu.fetch.icacheStallCycles            6288113                       # Number of cycles fetch is stalled on an Icache miss (Cycle)
system.cpu.fetch.insts                       59425444                       # Number of instructions fetch has processed (Count)
system.cpu.fetch.branches                     1903638                       # Number of branches that fetch encountered (Count)
system.cpu.fetch.predictedBranches            1895476                       # Number of branches that fetch has predicted taken (Count)
system.cpu.fetch.cycles                      38206723                       # Number of cycles fetch has run and was not squashing or blocked (Cycle)
system.cpu.fetch.squashCycles                 1500640                       # Number of cycles fetch has spent squashing (Cycle)
system.cpu.fetch.miscStallCycles                   14                       # Number of cycles fetch has spent waiting on interrupts, or bad addresses, or out of MSHRs (Cycle)
system.cpu.fetch.pendingTrapStallCycles            69                       # Number of stall cycles due to pending traps (Cycle)
system.cpu.fetch.cacheLines                   5793951                       # Number of cache lines fetched (Count)
system.cpu.fetch.icacheSquashes                   444                       # Number of outstanding Icache misses that were squashed (Count)
system.cpu.fetch.nisnDist::samples           45245239                       # Number of instructions fetched each cycle (Total) (Count)
system.cpu.fetch.nisnDist::mean              1.924073                       # Number of instructions fetched each cycle (Total) (Count)
system.cpu.fetch.nisnDist::stdev             3.129698                       # Number of instructions fetched each cycle (Total) (Count)
system.cpu.fetch.nisnDist::underflows               0      0.00%      0.00% # Number of instructions fetched each cycle (Total) (Count)
system.cpu.fetch.nisnDist::0                 31132926     68.81%     68.81% # Number of instructions fetched each cycle (Total) (Count)
system.cpu.fetch.nisnDist::1                   358904      0.79%     69.60% # Number of instructions fetched each cycle (Total) (Count)
system.cpu.fetch.nisnDist::2                    88194      0.19%     69.80% # Number of instructions fetched each cycle (Total) (Count)
system.cpu.fetch.nisnDist::3                  2981994      6.59%     76.39% # Number of instructions fetched each cycle (Total) (Count)
system.cpu.fetch.nisnDist::4                  1051009      2.32%     78.71% # Number of instructions fetched each cycle (Total) (Count)
system.cpu.fetch.nisnDist::5                   569483      1.26%     79.97% # Number of instructions fetched each cycle (Total) (Count)
system.cpu.fetch.nisnDist::6                   875867      1.94%     81.91% # Number of instructions fetched each cycle (Total) (Count)
system.cpu.fetch.nisnDist::7                   227693      0.50%     82.41% # Number of instructions fetched each cycle (Total) (Count)
system.cpu.fetch.nisnDist::8                  7959169     17.59%    100.00% # Number of instructions fetched each cycle (Total) (Count)
system.cpu.fetch.nisnDist::overflows                0      0.00%    100.00% # Number of instructions fetched each cycle (Total) (Count)
system.cpu.fetch.nisnDist::min_value                0                       # Number of instructions fetched each cycle (Total) (Count)
system.cpu.fetch.nisnDist::max_value                8                       # Number of instructions fetched each cycle (Total) (Count)
system.cpu.fetch.nisnDist::total             45245239                       # Number of instructions fetched each cycle (Total) (Count)
system.cpu.fetch.branchRate                  0.042063                       # Number of branch fetches per cycle (Ratio)
system.cpu.fetch.rate                        1.313072                       # Number of inst fetches per cycle ((Count/Cycle))
system.cpu.icache.demandHits::cpu.inst        5793319                       # number of demand (read+write) hits (Count)
system.cpu.icache.demandHits::total           5793319                       # number of demand (read+write) hits (Count)
system.cpu.icache.overallHits::cpu.inst       5793319                       # number of overall hits (Count)
system.cpu.icache.overallHits::total          5793319                       # number of overall hits (Count)
system.cpu.icache.demandMisses::cpu.inst          632                       # number of demand (read+write) misses (Count)
system.cpu.icache.demandMisses::total             632                       # number of demand (read+write) misses (Count)
system.cpu.icache.overallMisses::cpu.inst          632                       # number of overall misses (Count)
system.cpu.icache.overallMisses::total            632                       # number of overall misses (Count)
system.cpu.icache.demandMissLatency::cpu.inst     46764000                       # number of demand (read+write) miss ticks (Tick)
system.cpu.icache.demandMissLatency::total     46764000                       # number of demand (read+write) miss ticks (Tick)
system.cpu.icache.overallMissLatency::cpu.inst     46764000                       # number of overall miss ticks (Tick)
system.cpu.icache.overallMissLatency::total     46764000                       # number of overall miss ticks (Tick)
system.cpu.icache.demandAccesses::cpu.inst      5793951                       # number of demand (read+write) accesses (Count)
system.cpu.icache.demandAccesses::total       5793951                       # number of demand (read+write) accesses (Count)
system.cpu.icache.overallAccesses::cpu.inst      5793951                       # number of overall (read+write) accesses (Count)
system.cpu.icache.overallAccesses::total      5793951                       # number of overall (read+write) accesses (Count)
system.cpu.icache.demandMissRate::cpu.inst     0.000109                       # miss rate for demand accesses (Ratio)
system.cpu.icache.demandMissRate::total      0.000109                       # miss rate for demand accesses (Ratio)
system.cpu.icache.overallMissRate::cpu.inst     0.000109                       # miss rate for overall accesses (Ratio)
system.cpu.icache.overallMissRate::total     0.000109                       # miss rate for overall accesses (Ratio)
system.cpu.icache.demandAvgMissLatency::cpu.inst 73993.670886                       # average overall miss latency in ticks ((Tick/Count))
system.cpu.icache.demandAvgMissLatency::total 73993.670886                       # average overall miss latency in ticks ((Tick/Count))
system.cpu.icache.overallAvgMissLatency::cpu.inst 73993.670886                       # average overall miss latency ((Tick/Count))
system.cpu.icache.overallAvgMissLatency::total 73993.670886                       # average overall miss latency ((Tick/Count))
system.cpu.icache.blockedCycles::no_mshrs           54                       # number of cycles access was blocked (Cycle)
system.cpu.icache.blockedCycles::no_targets            0                       # number of cycles access was blocked (Cycle)
system.cpu.icache.blockedCauses::no_mshrs            4                       # number of times access was blocked (Count)
system.cpu.icache.blockedCauses::no_targets            0                       # number of times access was blocked (Count)
system.cpu.icache.avgBlocked::no_mshrs      13.500000                       # average number of cycles each access was blocked ((Cycle/Count))
system.cpu.icache.avgBlocked::no_targets          nan                       # average number of cycles each access was blocked ((Cycle/Count))
system.cpu.icache.demandMshrHits::cpu.inst          161                       # number of demand (read+write) MSHR hits (Count)
system.cpu.icache.demandMshrHits::total           161                       # number of demand (read+write) MSHR hits (Count)
system.cpu.icache.overallMshrHits::cpu.inst          161                       # number of overall MSHR hits (Count)
system.cpu.icache.overallMshrHits::total          161                       # number of overall MSHR hits (Count)
system.cpu.icache.demandMshrMisses::cpu.inst          471                       # number of demand (read+write) MSHR misses (Count)
system.cpu.icache.demandMshrMisses::total          471                       # number of demand (read+write) MSHR misses (Count)
system.cpu.icache.overallMshrMisses::cpu.inst          471                       # number of overall MSHR misses (Count)
system.cpu.icache.overallMshrMisses::total          471                       # number of overall MSHR misses (Count)
system.cpu.icache.demandMshrMissLatency::cpu.inst     37927000                       # number of demand (read+write) MSHR miss ticks (Tick)
system.cpu.icache.demandMshrMissLatency::total     37927000                       # number of demand (read+write) MSHR miss ticks (Tick)
system.cpu.icache.overallMshrMissLatency::cpu.inst     37927000                       # number of overall MSHR miss ticks (Tick)
system.cpu.icache.overallMshrMissLatency::total     37927000                       # number of overall MSHR miss ticks (Tick)
system.cpu.icache.demandMshrMissRate::cpu.inst     0.000081                       # mshr miss ratio for demand accesses (Ratio)
system.cpu.icache.demandMshrMissRate::total     0.000081                       # mshr miss ratio for demand accesses (Ratio)
system.cpu.icache.overallMshrMissRate::cpu.inst     0.000081                       # mshr miss ratio for overall accesses (Ratio)
system.cpu.icache.overallMshrMissRate::total     0.000081                       # mshr miss ratio for overall accesses (Ratio)
system.cpu.icache.demandAvgMshrMissLatency::cpu.inst 80524.416136                       # average overall mshr miss latency ((Tick/Count))
system.cpu.icache.demandAvgMshrMissLatency::total 80524.416136                       # average overall mshr miss latency ((Tick/Count))
system.cpu.icache.overallAvgMshrMissLatency::cpu.inst 80524.416136                       # average overall mshr miss latency ((Tick/Count))
system.cpu.icache.overallAvgMshrMissLatency::total 80524.416136                       # average overall mshr miss latency ((Tick/Count))
system.cpu.icache.replacements                     14                       # number of replacements (Count)
system.cpu.icache.ReadReq.hits::cpu.inst      5793319                       # number of ReadReq hits (Count)
system.cpu.icache.ReadReq.hits::total         5793319                       # number of ReadReq hits (Count)
system.cpu.icache.ReadReq.misses::cpu.inst          632                       # number of ReadReq misses (Count)
system.cpu.icache.ReadReq.misses::total           632                       # number of ReadReq misses (Count)
system.cpu.icache.ReadReq.missLatency::cpu.inst     46764000                       # number of ReadReq miss ticks (Tick)
system.cpu.icache.ReadReq.missLatency::total     46764000                       # number of ReadReq miss ticks (Tick)
system.cpu.icache.ReadReq.accesses::cpu.inst      5793951                       # number of ReadReq accesses(hits+misses) (Count)
system.cpu.icache.ReadReq.accesses::total      5793951                       # number of ReadReq accesses(hits+misses) (Count)
system.cpu.icache.ReadReq.missRate::cpu.inst     0.000109                       # miss rate for ReadReq accesses (Ratio)
system.cpu.icache.ReadReq.missRate::total     0.000109                       # miss rate for ReadReq accesses (Ratio)
system.cpu.icache.ReadReq.avgMissLatency::cpu.inst 73993.670886                       # average ReadReq miss latency ((Tick/Count))
system.cpu.icache.ReadReq.avgMissLatency::total 73993.670886                       # average ReadReq miss latency ((Tick/Count))
system.cpu.icache.ReadReq.mshrHits::cpu.inst          161                       # number of ReadReq MSHR hits (Count)
system.cpu.icache.ReadReq.mshrHits::total          161                       # number of ReadReq MSHR hits (Count)
system.cpu.icache.ReadReq.mshrMisses::cpu.inst          471                       # number of ReadReq MSHR misses (Count)
system.cpu.icache.ReadReq.mshrMisses::total          471                       # number of ReadReq MSHR misses (Count)
system.cpu.icache.ReadReq.mshrMissLatency::cpu.inst     37927000                       # number of ReadReq MSHR miss ticks (Tick)
system.cpu.icache.ReadReq.mshrMissLatency::total     37927000                       # number of ReadReq MSHR miss ticks (Tick)
system.cpu.icache.ReadReq.mshrMissRate::cpu.inst     0.000081                       # mshr miss rate for ReadReq accesses (Ratio)
system.cpu.icache.ReadReq.mshrMissRate::total     0.000081                       # mshr miss rate for ReadReq accesses (Ratio)
system.cpu.icache.ReadReq.avgMshrMissLatency::cpu.inst 80524.416136                       # average ReadReq mshr miss latency ((Tick/Count))
system.cpu.icache.ReadReq.avgMshrMissLatency::total 80524.416136                       # average ReadReq mshr miss latency ((Tick/Count))
system.cpu.icache.power_state.pwrStateResidencyTicks::UNDEFINED  45256793000                       # Cumulative time (in ticks) in various power states (Tick)
system.cpu.icache.prefetcher.demandMshrMisses          471                       # demands not covered by prefetchs (Count)
system.cpu.icache.prefetcher.pfIssued               0                       # number of hwpf issued (Count)
system.cpu.icache.prefetcher.pfUseful               0                       # number of useful prefetch (Count)
system.cpu.icache.prefetcher.pfUsefulButMiss            0                       # number of hit on prefetch but cache block is not in an usable state (Count)
system.cpu.icache.prefetcher.accuracy             nan                       # accuracy of the prefetcher (Count)
system.cpu.icache.prefetcher.coverage               0                       # coverage brought by this prefetcher (Count)
system.cpu.icache.prefetcher.pfHitInCache            0                       # number of prefetches hitting in cache (Count)
system.cpu.icache.prefetcher.pfHitInMSHR            0                       # number of prefetches hitting in a MSHR (Count)
system.cpu.icache.prefetcher.pfHitInWB              0                       # number of prefetches hit in the Write Buffer (Count)
system.cpu.icache.prefetcher.pfLate                 0                       # number of late prefetches (hitting in cache, MSHR or WB) (Count)
system.cpu.icache.prefetcher.pfIdentified            0                       # number of prefetch candidates identified (Count)
system.cpu.icache.prefetcher.pfBufferHit            0                       # number of redundant prefetches already in prefetch queue (Count)
system.cpu.icache.prefetcher.pfInCache              0                       # number of redundant prefetches already in cache/mshr dropped (Count)
system.cpu.icache.prefetcher.pfRemovedDemand            0                       # number of prefetches dropped due to a demand for the same address (Count)
system.cpu.icache.prefetcher.pfRemovedFull            0                       # number of prefetches dropped due to prefetch queue size (Count)
system.cpu.icache.prefetcher.pfSpanPage             0                       # number of prefetches that crossed the page (Count)
system.cpu.icache.prefetcher.pfUsefulSpanPage            0                       # number of prefetches that is useful and crossed the page (Count)
system.cpu.icache.prefetcher.power_state.pwrStateResidencyTicks::UNDEFINED  45256793000                       # Cumulative time (in ticks) in various power states (Tick)
system.cpu.icache.tags.tagsInUse           425.162197                       # Average ticks per tags in use ((Tick/Count))
system.cpu.icache.tags.totalRefs              5793790                       # Total number of references to valid blocks. (Count)
system.cpu.icache.tags.sampledRefs                471                       # Sample count of references to valid blocks. (Count)
system.cpu.icache.tags.avgRefs           12301.040340                       # Average number of references to valid blocks. ((Count/Count))
system.cpu.icache.tags.warmupTick               88000                       # The tick when the warmup percentage was hit. (Tick)
system.cpu.icache.tags.occupancies::cpu.inst   425.162197                       # Average occupied blocks per tick, per requestor ((Count/Tick))
system.cpu.icache.tags.avgOccs::cpu.inst     0.415197                       # Average percentage of cache occupancy ((Ratio/Tick))
system.cpu.icache.tags.avgOccs::total        0.415197                       # Average percentage of cache occupancy ((Ratio/Tick))
system.cpu.icache.tags.occupanciesTaskId::1024          457                       # Occupied blocks per task id (Count)
system.cpu.icache.tags.ageTaskId_1024::4          457                       # Occupied blocks per task id, per block age (Count)
system.cpu.icache.tags.ratioOccsTaskId::1024     0.446289                       # Ratio of occupied blocks and all blocks, per task id (Ratio)
[...]
system.mem_ctrl.dram.numWrites::writebacks       290681                       # Number of write requests responded to by this memory (Count)
system.mem_ctrl.dram.numWrites::total          290681                       # Number of write requests responded to by this memory (Count)
system.mem_ctrl.dram.bwRead::cpu.inst          660409                       # Total read bandwidth from this memory ((Byte/Second))
system.mem_ctrl.dram.bwRead::cpu.data       291562860                       # Total read bandwidth from this memory ((Byte/Second))
system.mem_ctrl.dram.bwRead::cpu.dcache.prefetcher    155042007                       # Total read bandwidth from this memory ((Byte/Second))
system.mem_ctrl.dram.bwRead::l2cache.prefetcher    103179383                       # Total read bandwidth from this memory ((Byte/Second))
system.mem_ctrl.dram.bwRead::total          550444659                       # Total read bandwidth from this memory ((Byte/Second))
system.mem_ctrl.dram.bwInstRead::cpu.inst       660409                       # Instruction read bandwidth from this memory ((Byte/Second))
system.mem_ctrl.dram.bwInstRead::total         660409                       # Instruction read bandwidth from this memory ((Byte/Second))
system.mem_ctrl.dram.bwWrite::writebacks    411067218                       # Write bandwidth from this memory ((Byte/Second))
system.mem_ctrl.dram.bwWrite::total         411067218                       # Write bandwidth from this memory ((Byte/Second))
system.mem_ctrl.dram.bwTotal::writebacks    411067218                       # Total bandwidth to/from this memory ((Byte/Second))
system.mem_ctrl.dram.bwTotal::cpu.inst         660409                       # Total bandwidth to/from this memory ((Byte/Second))
system.mem_ctrl.dram.bwTotal::cpu.data      291562860                       # Total bandwidth to/from this memory ((Byte/Second))
system.mem_ctrl.dram.bwTotal::cpu.dcache.prefetcher    155042007                       # Total bandwidth to/from this memory ((Byte/Second))
system.mem_ctrl.dram.bwTotal::l2cache.prefetcher    103179383                       # Total bandwidth to/from this memory ((Byte/Second))
system.mem_ctrl.dram.bwTotal::total         961511877                       # Total bandwidth to/from this memory ((Byte/Second))
system.mem_ctrl.dram.readBursts                389240                       # Number of DRAM read bursts (Count)
system.mem_ctrl.dram.writeBursts               290666                       # Number of DRAM write bursts (Count)
system.mem_ctrl.dram.perBankRdBursts::0         24415                       # Per bank write bursts (Count)
system.mem_ctrl.dram.perBankRdBursts::1         24353                       # Per bank write bursts (Count)
system.mem_ctrl.dram.perBankRdBursts::2         24248                       # Per bank write bursts (Count)
system.mem_ctrl.dram.perBankRdBursts::3         24197                       # Per bank write bursts (Count)
system.mem_ctrl.dram.perBankRdBursts::4         24336                       # Per bank write bursts (Count)
system.mem_ctrl.dram.perBankRdBursts::5         24378                       # Per bank write bursts (Count)
system.mem_ctrl.dram.perBankRdBursts::6         24359                       # Per bank write bursts (Count)
system.mem_ctrl.dram.perBankRdBursts::7         24360                       # Per bank write bursts (Count)
system.mem_ctrl.dram.perBankRdBursts::8         24367                       # Per bank write bursts (Count)
system.mem_ctrl.dram.perBankRdBursts::9         24324                       # Per bank write bursts (Count)
system.mem_ctrl.dram.perBankRdBursts::10        24337                       # Per bank write bursts (Count)
system.mem_ctrl.dram.perBankRdBursts::11        24195                       # Per bank write bursts (Count)
system.mem_ctrl.dram.perBankRdBursts::12        24229                       # Per bank write bursts (Count)
system.mem_ctrl.dram.perBankRdBursts::13        24325                       # Per bank write bursts (Count)
system.mem_ctrl.dram.perBankRdBursts::14        24413                       # Per bank write bursts (Count)
system.mem_ctrl.dram.perBankRdBursts::15        24404                       # Per bank write bursts (Count)
system.mem_ctrl.dram.perBankWrBursts::0         18211                       # Per bank write bursts (Count)
system.mem_ctrl.dram.perBankWrBursts::1         18180                       # Per bank write bursts (Count)
system.mem_ctrl.dram.perBankWrBursts::2         18208                       # Per bank write bursts (Count)
system.mem_ctrl.dram.perBankWrBursts::3         18179                       # Per bank write bursts (Count)
system.mem_ctrl.dram.perBankWrBursts::4         18176                       # Per bank write bursts (Count)
system.mem_ctrl.dram.perBankWrBursts::5         18176                       # Per bank write bursts (Count)
system.mem_ctrl.dram.perBankWrBursts::6         18176                       # Per bank write bursts (Count)
system.mem_ctrl.dram.perBankWrBursts::7         18176                       # Per bank write bursts (Count)
system.mem_ctrl.dram.perBankWrBursts::8         18176                       # Per bank write bursts (Count)
system.mem_ctrl.dram.perBankWrBursts::9         18176                       # Per bank write bursts (Count)
system.mem_ctrl.dram.perBankWrBursts::10        18161                       # Per bank write bursts (Count)
system.mem_ctrl.dram.perBankWrBursts::11        18048                       # Per bank write bursts (Count)
system.mem_ctrl.dram.perBankWrBursts::12        18048                       # Per bank write bursts (Count)
system.mem_ctrl.dram.perBankWrBursts::13        18159                       # Per bank write bursts (Count)
system.mem_ctrl.dram.perBankWrBursts::14        18230                       # Per bank write bursts (Count)
system.mem_ctrl.dram.perBankWrBursts::15        18186                       # Per bank write bursts (Count)
system.mem_ctrl.dram.totQLat               5740596334                       # Total ticks spent queuing (Tick)
system.mem_ctrl.dram.totBusLat             1946200000                       # Total ticks spent in databus transfers (Tick)
system.mem_ctrl.dram.totMemAccLat         13038846334                       # Total ticks spent from burst creation until serviced by the DRAM (Tick)
system.mem_ctrl.dram.avgQLat                 14748.22                       # Average queueing delay per DRAM burst ((Tick/Count))
system.mem_ctrl.dram.avgBusLat                5000.00                       # Average bus latency per DRAM burst ((Tick/Count))
system.mem_ctrl.dram.avgMemAccLat            33498.22                       # Average memory access latency per DRAM burst ((Tick/Count))
system.mem_ctrl.dram.readRowHits               344308                       # Number of row buffer hits during reads (Count)
system.mem_ctrl.dram.writeRowHits              254399                       # Number of row buffer hits during writes (Count)
system.mem_ctrl.dram.readRowHitRate             88.46                       # Row buffer hit rate for reads (Ratio)
system.mem_ctrl.dram.writeRowHitRate            87.52                       # Row buffer hit rate for writes (Ratio)
system.mem_ctrl.dram.bytesPerActivate::samples        81197                       # Bytes accessed per row activation (Byte)
system.mem_ctrl.dram.bytesPerActivate::mean   535.898420                       # Bytes accessed per row activation (Byte)
system.mem_ctrl.dram.bytesPerActivate::gmean   468.880222                       # Bytes accessed per row activation (Byte)
system.mem_ctrl.dram.bytesPerActivate::stdev   246.743956                       # Bytes accessed per row activation (Byte)
system.mem_ctrl.dram.bytesPerActivate::0-127         1730      2.13%      2.13% # Bytes accessed per row activation (Byte)
system.mem_ctrl.dram.bytesPerActivate::128-255         6284      7.74%      9.87% # Bytes accessed per row activation (Byte)
system.mem_ctrl.dram.bytesPerActivate::256-383         7179      8.84%     18.71% # Bytes accessed per row activation (Byte)
system.mem_ctrl.dram.bytesPerActivate::384-511         2668      3.29%     22.00% # Bytes accessed per row activation (Byte)
system.mem_ctrl.dram.bytesPerActivate::512-639        48239     59.41%     81.41% # Bytes accessed per row activation (Byte)
system.mem_ctrl.dram.bytesPerActivate::640-767          495      0.61%     82.02% # Bytes accessed per row activation (Byte)
system.mem_ctrl.dram.bytesPerActivate::768-895         1895      2.33%     84.35% # Bytes accessed per row activation (Byte)
system.mem_ctrl.dram.bytesPerActivate::896-1023         1737      2.14%     86.49% # Bytes accessed per row activation (Byte)
system.mem_ctrl.dram.bytesPerActivate::1024-1151        10970     13.51%    100.00% # Bytes accessed per row activation (Byte)
system.mem_ctrl.dram.bytesPerActivate::total        81197                       # Bytes accessed per row activation (Byte)
system.mem_ctrl.dram.bytesRead               24911360                       # Total bytes read (Byte)
system.mem_ctrl.dram.bytesWritten            18602624                       # Total bytes written (Byte)
system.mem_ctrl.dram.avgRdBW               550.444659                       # Average DRAM read bandwidth in MiBytes/s ((Byte/Second))
system.mem_ctrl.dram.avgWrBW               411.046006                       # Average DRAM write bandwidth in MiBytes/s ((Byte/Second))
system.mem_ctrl.dram.peakBW                  12800.00                       # Theoretical peak bandwidth in MiByte/s ((Byte/Second))
system.mem_ctrl.dram.busUtil                     7.51                       # Data bus utilization in percentage (Ratio)
system.mem_ctrl.dram.busUtilRead                 4.30                       # Data bus utilization in percentage for reads (Ratio)
system.mem_ctrl.dram.busUtilWrite                3.21                       # Data bus utilization in percentage for writes (Ratio)
system.mem_ctrl.dram.pageHitRate                88.06                       # Row buffer hit rate, read and write combined (Ratio)
system.mem_ctrl.dram.power_state.pwrStateResidencyTicks::UNDEFINED  45256793000                       # Cumulative time (in ticks) in various power states (Tick)
system.mem_ctrl.dram.rank0.actEnergy        289598400                       # Energy for activate commands per rank (pJ) (Joule)
system.mem_ctrl.dram.rank0.preEnergy        153921405                       # Energy for precharge commands per rank (pJ) (Joule)
system.mem_ctrl.dram.rank0.readEnergy      1389772440                       # Energy for read commands per rank (pJ) (Joule)
system.mem_ctrl.dram.rank0.writeEnergy      759416040                       # Energy for write commands per rank (pJ) (Joule)
system.mem_ctrl.dram.rank0.refreshEnergy 3572287680.000000                       # Energy for refresh commands per rank (pJ) (Joule)
system.mem_ctrl.dram.rank0.actBackEnergy  17733320730                       # Energy for active background per rank (pJ) (Joule)
system.mem_ctrl.dram.rank0.preBackEnergy   2445286080                       # Energy for precharge background per rank (pJ) (Joule)
system.mem_ctrl.dram.rank0.actPowerDownEnergy            0                       # Energy for active power-down per rank (pJ) (Joule)
system.mem_ctrl.dram.rank0.prePowerDownEnergy            0                       # Energy for precharge power-down per rank (pJ) (Joule)
system.mem_ctrl.dram.rank0.selfRefreshEnergy            0                       # Energy for self refresh per rank (pJ) (Joule)
system.mem_ctrl.dram.rank0.totalEnergy    26343602775                       # Total energy per rank (pJ) (Joule)
system.mem_ctrl.dram.rank0.averagePower    582.091682                       # Core power per rank (mW) (Watt)
system.mem_ctrl.dram.rank0.totalIdleTime            0                       # Total Idle time Per DRAM Rank (Tick)
system.mem_ctrl.dram.rank0.pwrStateTime::IDLE   6115042287                       # Time in different power states (Tick)
system.mem_ctrl.dram.rank0.pwrStateTime::REF   1511120000                       # Time in different power states (Tick)
system.mem_ctrl.dram.rank0.pwrStateTime::SREF            0                       # Time in different power states (Tick)
system.mem_ctrl.dram.rank0.pwrStateTime::PRE_PDN            0                       # Time in different power states (Tick)
system.mem_ctrl.dram.rank0.pwrStateTime::ACT  37630630713                       # Time in different power states (Tick)
system.mem_ctrl.dram.rank0.pwrStateTime::ACT_PDN            0                       # Time in different power states (Tick)
system.mem_ctrl.dram.rank1.actEnergy        290162460                       # Energy for activate commands per rank (pJ) (Joule)
system.mem_ctrl.dram.rank1.preEnergy        154221210                       # Energy for precharge commands per rank (pJ) (Joule)
system.mem_ctrl.dram.rank1.readEnergy      1389401160                       # Energy for read commands per rank (pJ) (Joule)
system.mem_ctrl.dram.rank1.writeEnergy      757860480                       # Energy for write commands per rank (pJ) (Joule)
system.mem_ctrl.dram.rank1.refreshEnergy 3572287680.000000                       # Energy for refresh commands per rank (pJ) (Joule)
system.mem_ctrl.dram.rank1.actBackEnergy  17645992170                       # Energy for active background per rank (pJ) (Joule)
system.mem_ctrl.dram.rank1.preBackEnergy   2518825920                       # Energy for precharge background per rank (pJ) (Joule)
system.mem_ctrl.dram.rank1.actPowerDownEnergy            0                       # Energy for active power-down per rank (pJ) (Joule)
system.mem_ctrl.dram.rank1.prePowerDownEnergy            0                       # Energy for precharge power-down per rank (pJ) (Joule)
system.mem_ctrl.dram.rank1.selfRefreshEnergy            0                       # Energy for self refresh per rank (pJ) (Joule)
system.mem_ctrl.dram.rank1.totalEnergy    26328751080                       # Total energy per rank (pJ) (Joule)
system.mem_ctrl.dram.rank1.averagePower    581.763517                       # Core power per rank (mW) (Watt)
system.mem_ctrl.dram.rank1.totalIdleTime            0                       # Total Idle time Per DRAM Rank (Tick)
system.mem_ctrl.dram.rank1.pwrStateTime::IDLE   6304671778                       # Time in different power states (Tick)
system.mem_ctrl.dram.rank1.pwrStateTime::REF   1511120000                       # Time in different power states (Tick)
system.mem_ctrl.dram.rank1.pwrStateTime::SREF            0                       # Time in different power states (Tick)
system.mem_ctrl.dram.rank1.pwrStateTime::PRE_PDN            0                       # Time in different power states (Tick)
system.mem_ctrl.dram.rank1.pwrStateTime::ACT  37441001222                       # Time in different power states (Tick)
system.mem_ctrl.dram.rank1.pwrStateTime::ACT_PDN            0                       # Time in different power states (Tick)
system.mem_ctrl.power_state.pwrStateResidencyTicks::UNDEFINED  45256793000                       # Cumulative time (in ticks) in various power states (Tick)
system.membus.transDist::ReadResp              233347                       # Transaction distribution (Count)
system.membus.transDist::WritebackDirty        290681                       # Transaction distribution (Count)
system.membus.transDist::CleanEvict             94006                       # Transaction distribution (Count)
system.membus.transDist::ReadExReq             155893                       # Transaction distribution (Count)
system.membus.transDist::ReadExResp            155893                       # Transaction distribution (Count)
system.membus.transDist::ReadSharedReq         233347                       # Transaction distribution (Count)
system.membus.pktCount_system.l2cache.mem_side_port::system.mem_ctrl.port      1163167                       # Packet count per connected requestor and responder (Count)
system.membus.pktCount_system.l2cache.mem_side_port::total      1163167                       # Packet count per connected requestor and responder (Count)
system.membus.pktCount::total                 1163167                       # Packet count per connected requestor and responder (Count)
system.membus.pktSize_system.l2cache.mem_side_port::system.mem_ctrl.port     43514944                       # Cumulative packet size per connected requestor and responder (Byte)
system.membus.pktSize_system.l2cache.mem_side_port::total     43514944                       # Cumulative packet size per connected requestor and responder (Byte)
system.membus.pktSize::total                 43514944                       # Cumulative packet size per connected requestor and responder (Byte)
system.membus.snoops                                0                       # Total snoops (Count)
system.membus.snoopTraffic                          0                       # Total snoop traffic (Byte)
system.membus.snoopFanout::samples             389240                       # Request fanout histogram (Count)
system.membus.snoopFanout::mean                     0                       # Request fanout histogram (Count)
system.membus.snoopFanout::stdev                    0                       # Request fanout histogram (Count)
system.membus.snoopFanout::underflows               0      0.00%      0.00% # Request fanout histogram (Count)
system.membus.snoopFanout::0                   389240    100.00%    100.00% # Request fanout histogram (Count)
system.membus.snoopFanout::1                        0      0.00%    100.00% # Request fanout histogram (Count)
system.membus.snoopFanout::overflows                0      0.00%    100.00% # Request fanout histogram (Count)
system.membus.snoopFanout::min_value                0                       # Request fanout histogram (Count)
system.membus.snoopFanout::max_value                0                       # Request fanout histogram (Count)
system.membus.snoopFanout::total               389240                       # Request fanout histogram (Count)
system.membus.power_state.pwrStateResidencyTicks::UNDEFINED  45256793000                       # Cumulative time (in ticks) in various power states (Tick)
system.membus.reqLayer2.occupancy          1938551739                       # Layer occupancy (ticks) (Tick)
system.membus.reqLayer2.utilization               0.0                       # Layer utilization (Ratio)
system.membus.respLayer0.occupancy         2023389205                       # Layer occupancy (ticks) (Tick)
system.membus.respLayer0.utilization              0.0                       # Layer utilization (Ratio)
system.membus.snoop_filter.totRequests         773927                       # Total number of requests made to the snoop filter. (Count)
system.membus.snoop_filter.hitSingleRequests       384687                       # Number of requests hitting in the snoop filter with a single holder of the requested data. (Count)
system.membus.snoop_filter.hitMultiRequests            0                       # Number of requests hitting in the snoop filter with multiple (>1) holders of the requested data. (Count)
system.membus.snoop_filter.totSnoops                0                       # Total number of snoops made to the snoop filter. (Count)
system.membus.snoop_filter.hitSingleSnoops            0                       # Number of snoops hitting in the snoop filter with a single holder of the requested data. (Count)
system.membus.snoop_filter.hitMultiSnoops            0                       # Number of snoops hitting in the snoop filter with multiple (>1) holders of the requested data. (Count)
system.workload.inst.arm                            0                       # number of arm instructions executed (Count)
system.workload.inst.quiesce                        0                       # number of quiesce instructions executed (Count)

---------- End Simulation Statistics   ----------
