
---------- Begin Simulation Statistics ----------
simSeconds                                   0.375979                       # Number of seconds simulated (Second)
simTicks                                 375979087000                       # Number of ticks simulated (Tick)
finalTick                                375979087000                       # Number of ticks from beginning of simulation (restored from checkpoints and never reset) (Tick)
simFreq                                  1000000000000                       # The number of ticks per simulated second ((Tick/Second))
hostSeconds                                   3208.24                       # Real time elapsed on the host (Second)
hostTickRate                                117191829                       # The number of ticks simulated per host second (ticks/s) ((Tick/Second))
hostMemory                                    8525612                       # Number of bytes of host memory used (Byte)
simInsts                                     50000001                       # Number of instructions simulated (Count)
simOps                                       62368872                       # Number of ops (including micro ops) simulated (Count)
hostInstRate                                    15585                       # Simulator instruction rate (inst/s) ((Count/Second))
hostOpRate                                      19440                       # Simulator op (including micro ops) rate (op/s) ((Count/Second))
system.clk_domain.clock                          1000                       # Clock period in ticks (Tick)
system.clk_domain.voltage_domain.voltage            1                       # Voltage in Volts (Volt)
system.cpu.numCycles                        375979100                       # Number of cpu cycles simulated (Cycle)
system.cpu.numWorkItemsStarted                      0                       # Number of work items this cpu started (Count)
system.cpu.numWorkItemsCompleted                    0                       # Number of work items this cpu completed (Count)
system.cpu.instsAdded                      1077377562                       # Number of instructions added to the IQ (excludes non-spec) (Count)
system.cpu.nonSpecInstsAdded                 37691163                       # Number of non-speculative instructions added to the IQ (Count)
system.cpu.instsIssued                     1040220597                       # Number of instructions issued (Count)
system.cpu.squashedInstsIssued                7292389                       # Number of squashed instructions issued (Count)
system.cpu.squashedInstsExamined           1052699711                       # Number of squashed instructions iterated over during squash; mainly for profiling (Count)
system.cpu.squashedOperandsExamined         484304799                       # Number of squashed operands that are examined and possibly removed from graph (Count)
system.cpu.squashedNonSpecRemoved            36802411                       # Number of squashed non-spec instructions that were removed (Count)
system.cpu.numIssuedDist::samples           375966520                       # Number of insts issued each cycle (Count)
system.cpu.numIssuedDist::mean               2.766791                       # Number of insts issued each cycle (Count)
system.cpu.numIssuedDist::stdev              2.867338                       # Number of insts issued each cycle (Count)
system.cpu.numIssuedDist::underflows                0      0.00%      0.00% # Number of insts issued each cycle (Count)
system.cpu.numIssuedDist::0                 157724159     41.95%     41.95% # Number of insts issued each cycle (Count)
system.cpu.numIssuedDist::1                  18542046      4.93%     46.88% # Number of insts issued each cycle (Count)
system.cpu.numIssuedDist::2                  11359640      3.02%     49.90% # Number of insts issued each cycle (Count)
system.cpu.numIssuedDist::3                  35389314      9.41%     59.32% # Number of insts issued each cycle (Count)
system.cpu.numIssuedDist::4                  46135142     12.27%     71.59% # Number of insts issued each cycle (Count)
system.cpu.numIssuedDist::5                  29395916      7.82%     79.41% # Number of insts issued each cycle (Count)
system.cpu.numIssuedDist::6                  15026502      4.00%     83.40% # Number of insts issued each cycle (Count)
system.cpu.numIssuedDist::7                  28038239      7.46%     90.86% # Number of insts issued each cycle (Count)
system.cpu.numIssuedDist::8                  34355562      9.14%    100.00% # Number of insts issued each cycle (Count)
system.cpu.numIssuedDist::overflows                 0      0.00%    100.00% # Number of insts issued each cycle (Count)
system.cpu.numIssuedDist::min_value                 0                       # Number of insts issued each cycle (Count)
system.cpu.numIssuedDist::max_value                 8                       # Number of insts issued each cycle (Count)
system.cpu.numIssuedDist::total             375966520                       # Number of insts issued each cycle (Count)
system.cpu.statFuBusy::No_OpClass                   0      0.00%      0.00% # attempts to use FU when none available (Count)
system.cpu.statFuBusy::IntAlu                  254604      0.42%      0.42% # attempts to use FU when none available (Count)
system.cpu.statFuBusy::IntMult                      0      0.00%      0.42% # attempts to use FU when none available (Count)
system.cpu.statFuBusy::IntDiv                       0      0.00%      0.42% # attempts to use FU when none available (Count)
system.cpu.statFuBusy::FloatAdd                     0      0.00%      0.42% # attempts to use FU when none available (Count)
system.cpu.statFuBusy::FloatCmp                     0      0.00%      0.42% # attempts to use FU when none available (Count)
system.cpu.statFuBusy::FloatCvt                     0      0.00%      0.42% # attempts to use FU when none available (Count)
system.cpu.statFuBusy::FloatMult                    0      0.00%      0.42% # attempts to use FU when none available (Count)
system.cpu.statFuBusy::FloatMultAcc                 0      0.00%      0.42% # attempts to use FU when none available (Count)
system.cpu.statFuBusy::FloatDiv                     0      0.00%      0.42% # attempts to use FU when none available (Count)
system.cpu.statFuBusy::FloatMisc                    0      0.00%      0.42% # attempts to use FU when none available (Count)
system.cpu.statFuBusy::FloatSqrt                    0      0.00%      0.42% # attempts to use FU when none available (Count)
system.cpu.statFuBusy::SimdAdd                      0      0.00%      0.42% # attempts to use FU when none available (Count)
system.cpu.statFuBusy::SimdAddAcc                   0      0.00%      0.42% # attempts to use FU when none available (Count)
system.cpu.statFuBusy::SimdAlu                     73      0.00%      0.42% # attempts to use FU when none available (Count)
system.cpu.statFuBusy::SimdCmp                      0      0.00%      0.42% # attempts to use FU when none available (Count)
system.cpu.statFuBusy::SimdCvt                     20      0.00%      0.42% # attempts to use FU when none available (Count)
system.cpu.statFuBusy::SimdMisc                     3      0.00%      0.42% # attempts to use FU when none available (Count)
system.cpu.statFuBusy::SimdMult                     0      0.00%      0.42% # attempts to use FU when none available (Count)
system.cpu.statFuBusy::SimdMultAcc                  0      0.00%      0.42% # attempts to use FU when none available (Count)
system.cpu.statFuBusy::SimdShift                    0      0.00%      0.42% # attempts to use FU when none available (Count)
system.cpu.statFuBusy::SimdShiftAcc                 0      0.00%      0.42% # attempts to use FU when none available (Count)
system.cpu.statFuBusy::SimdDiv                      0      0.00%      0.42% # attempts to use FU when none available (Count)
system.cpu.statFuBusy::SimdSqrt                     0      0.00%      0.42% # attempts to use FU when none available (Count)
system.cpu.statFuBusy::SimdFloatAdd                 0      0.00%      0.42% # attempts to use FU when none available (Count)
system.cpu.statFuBusy::SimdFloatAlu                 0      0.00%      0.42% # attempts to use FU when none available (Count)
system.cpu.statFuBusy::SimdFloatCmp                 0      0.00%      0.42% # attempts to use FU when none available (Count)
system.cpu.statFuBusy::SimdFloatCvt                 0      0.00%      0.42% # attempts to use FU when none available (Count)
system.cpu.statFuBusy::SimdFloatDiv                 0      0.00%      0.42% # attempts to use FU when none available (Count)
system.cpu.statFuBusy::SimdFloatMisc                0      0.00%      0.42% # attempts to use FU when none available (Count)
system.cpu.statFuBusy::SimdFloatMult                0      0.00%      0.42% # attempts to use FU when none available (Count)
system.cpu.statFuBusy::SimdFloatMultAcc             0      0.00%      0.42% # attempts to use FU when none available (Count)
system.cpu.statFuBusy::SimdFloatSqrt                0      0.00%      0.42% # attempts to use FU when none available (Count)
system.cpu.statFuBusy::SimdReduceAdd                0      0.00%      0.42% # attempts to use FU when none available (Count)
system.cpu.statFuBusy::SimdReduceAlu                0      0.00%      0.42% # attempts to use FU when none available (Count)
system.cpu.statFuBusy::SimdReduceCmp                0      0.00%      0.42% # attempts to use FU when none available (Count)
system.cpu.statFuBusy::SimdFloatReduceAdd            0      0.00%      0.42% # attempts to use FU when none available (Count)
system.cpu.statFuBusy::SimdFloatReduceCmp            0      0.00%      0.42% # attempts to use FU when none available (Count)
system.cpu.statFuBusy::SimdAes                      0      0.00%      0.42% # attempts to use FU when none available (Count)
system.cpu.statFuBusy::SimdAesMix                   0      0.00%      0.42% # attempts to use FU when none available (Count)
system.cpu.statFuBusy::SimdSha1Hash                 0      0.00%      0.42% # attempts to use FU when none available (Count)
system.cpu.statFuBusy::SimdSha1Hash2                0      0.00%      0.42% # attempts to use FU when none available (Count)
system.cpu.statFuBusy::SimdSha256Hash               0      0.00%      0.42% # attempts to use FU when none available (Count)
system.cpu.statFuBusy::SimdSha256Hash2              0      0.00%      0.42% # attempts to use FU when none available (Count)
system.cpu.statFuBusy::SimdShaSigma2                0      0.00%      0.42% # attempts to use FU when none available (Count)
system.cpu.statFuBusy::SimdShaSigma3                0      0.00%      0.42% # attempts to use FU when none available (Count)
system.cpu.statFuBusy::SimdPredAlu                  0      0.00%      0.42% # attempts to use FU when none available (Count)
system.cpu.statFuBusy::MemRead               53034530     87.26%     87.68% # attempts to use FU when none available (Count)
system.cpu.statFuBusy::MemWrite               7488510     12.32%    100.00% # attempts to use FU when none available (Count)
system.cpu.statFuBusy::FloatMemRead                 8      0.00%    100.00% # attempts to use FU when none available (Count)
system.cpu.statFuBusy::FloatMemWrite               87      0.00%    100.00% # attempts to use FU when none available (Count)
system.cpu.statFuBusy::IprAccess                    0      0.00%    100.00% # attempts to use FU when none available (Count)
system.cpu.statFuBusy::InstPrefetch                 0      0.00%    100.00% # attempts to use FU when none available (Count)
system.cpu.statIssuedInstType_0::No_OpClass    296447688     28.50%     28.50% # Number of instructions issued per FU type, per thread (Count)
system.cpu.statIssuedInstType_0::IntAlu     150580501     14.48%     42.97% # Number of instructions issued per FU type, per thread (Count)
system.cpu.statIssuedInstType_0::IntMult       131134      0.01%     42.99% # Number of instructions issued per FU type, per thread (Count)
system.cpu.statIssuedInstType_0::IntDiv            76      0.00%     42.99% # Number of instructions issued per FU type, per thread (Count)
system.cpu.statIssuedInstType_0::FloatAdd           64      0.00%     42.99% # Number of instructions issued per FU type, per thread (Count)
system.cpu.statIssuedInstType_0::FloatCmp            0      0.00%     42.99% # Number of instructions issued per FU type, per thread (Count)
system.cpu.statIssuedInstType_0::FloatCvt            0      0.00%     42.99% # Number of instructions issued per FU type, per thread (Count)
system.cpu.statIssuedInstType_0::FloatMult            0      0.00%     42.99% # Number of instructions issued per FU type, per thread (Count)
system.cpu.statIssuedInstType_0::FloatMultAcc            0      0.00%     42.99% # Number of instructions issued per FU type, per thread (Count)
system.cpu.statIssuedInstType_0::FloatDiv            0      0.00%     42.99% # Number of instructions issued per FU type, per thread (Count)
system.cpu.statIssuedInstType_0::FloatMisc            0      0.00%     42.99% # Number of instructions issued per FU type, per thread (Count)
system.cpu.statIssuedInstType_0::FloatSqrt            0      0.00%     42.99% # Number of instructions issued per FU type, per thread (Count)
system.cpu.statIssuedInstType_0::SimdAdd            0      0.00%     42.99% # Number of instructions issued per FU type, per thread (Count)
system.cpu.statIssuedInstType_0::SimdAddAcc            0      0.00%     42.99% # Number of instructions issued per FU type, per thread (Count)
system.cpu.statIssuedInstType_0::SimdAlu          259      0.00%     42.99% # Number of instructions issued per FU type, per thread (Count)
system.cpu.statIssuedInstType_0::SimdCmp            0      0.00%     42.99% # Number of instructions issued per FU type, per thread (Count)
system.cpu.statIssuedInstType_0::SimdCvt          142      0.00%     42.99% # Number of instructions issued per FU type, per thread (Count)
system.cpu.statIssuedInstType_0::SimdMisc          456      0.00%     42.99% # Number of instructions issued per FU type, per thread (Count)
system.cpu.statIssuedInstType_0::SimdMult            0      0.00%     42.99% # Number of instructions issued per FU type, per thread (Count)
system.cpu.statIssuedInstType_0::SimdMultAcc            0      0.00%     42.99% # Number of instructions issued per FU type, per thread (Count)
system.cpu.statIssuedInstType_0::SimdShift            0      0.00%     42.99% # Number of instructions issued per FU type, per thread (Count)
system.cpu.statIssuedInstType_0::SimdShiftAcc            0      0.00%     42.99% # Number of instructions issued per FU type, per thread (Count)
system.cpu.statIssuedInstType_0::SimdDiv            0      0.00%     42.99% # Number of instructions issued per FU type, per thread (Count)
system.cpu.statIssuedInstType_0::SimdSqrt            0      0.00%     42.99% # Number of instructions issued per FU type, per thread (Count)
system.cpu.statIssuedInstType_0::SimdFloatAdd            0      0.00%     42.99% # Number of instructions issued per FU type, per thread (Count)
system.cpu.statIssuedInstType_0::SimdFloatAlu            0      0.00%     42.99% # Number of instructions issued per FU type, per thread (Count)
system.cpu.statIssuedInstType_0::SimdFloatCmp            0      0.00%     42.99% # Number of instructions issued per FU type, per thread (Count)
system.cpu.statIssuedInstType_0::SimdFloatCvt            0      0.00%     42.99% # Number of instructions issued per FU type, per thread (Count)
system.cpu.statIssuedInstType_0::SimdFloatDiv            0      0.00%     42.99% # Number of instructions issued per FU type, per thread (Count)
system.cpu.statIssuedInstType_0::SimdFloatMisc            0      0.00%     42.99% # Number of instructions issued per FU type, per thread (Count)
system.cpu.statIssuedInstType_0::SimdFloatMult            0      0.00%     42.99% # Number of instructions issued per FU type, per thread (Count)
system.cpu.statIssuedInstType_0::SimdFloatMultAcc            0      0.00%     42.99% # Number of instructions issued per FU type, per thread (Count)
system.cpu.statIssuedInstType_0::SimdFloatSqrt            0      0.00%     42.99% # Number of instructions issued per FU type, per thread (Count)
system.cpu.statIssuedInstType_0::SimdReduceAdd            0      0.00%     42.99% # Number of instructions issued per FU type, per thread (Count)
system.cpu.statIssuedInstType_0::SimdReduceAlu            0      0.00%     42.99% # Number of instructions issued per FU type, per thread (Count)
system.cpu.statIssuedInstType_0::SimdReduceCmp            0      0.00%     42.99% # Number of instructions issued per FU type, per thread (Count)
system.cpu.statIssuedInstType_0::SimdFloatReduceAdd            0      0.00%     42.99% # Number of instructions issued per FU type, per thread (Count)
system.cpu.statIssuedInstType_0::SimdFloatReduceCmp            0      0.00%     42.99% # Number of instructions issued per FU type, per thread (Count)
system.cpu.statIssuedInstType_0::SimdAes            0      0.00%     42.99% # Number of instructions issued per FU type, per thread (Count)
system.cpu.statIssuedInstType_0::SimdAesMix            0      0.00%     42.99% # Number of instructions issued per FU type, per thread (Count)
system.cpu.statIssuedInstType_0::SimdSha1Hash            0      0.00%     42.99% # Number of instructions issued per FU type, per thread (Count)
system.cpu.statIssuedInstType_0::SimdSha1Hash2            0      0.00%     42.99% # Number of instructions issued per FU type, per thread (Count)
system.cpu.statIssuedInstType_0::SimdSha256Hash            0      0.00%     42.99% # Number of instructions issued per FU type, per thread (Count)
system.cpu.statIssuedInstType_0::SimdSha256Hash2            0      0.00%     42.99% # Number of instructions issued per FU type, per thread (Count)
system.cpu.statIssuedInstType_0::SimdShaSigma2            0      0.00%     42.99% # Number of instructions issued per FU type, per thread (Count)
system.cpu.statIssuedInstType_0::SimdShaSigma3            0      0.00%     42.99% # Number of instructions issued per FU type, per thread (Count)
system.cpu.statIssuedInstType_0::SimdPredAlu            0      0.00%     42.99% # Number of instructions issued per FU type, per thread (Count)
system.cpu.statIssuedInstType_0::MemRead    314442226     30.23%     73.22% # Number of instructions issued per FU type, per thread (Count)
system.cpu.statIssuedInstType_0::MemWrite    278617660     26.78%    100.00% # Number of instructions issued per FU type, per thread (Count)
system.cpu.statIssuedInstType_0::FloatMemRead          117      0.00%    100.00% # Number of instructions issued per FU type, per thread (Count)
system.cpu.statIssuedInstType_0::FloatMemWrite          274      0.00%    100.00% # Number of instructions issued per FU type, per thread (Count)
system.cpu.statIssuedInstType_0::IprAccess            0      0.00%    100.00% # Number of instructions issued per FU type, per thread (Count)
system.cpu.statIssuedInstType_0::InstPrefetch            0      0.00%    100.00% # Number of instructions issued per FU type, per thread (Count)
system.cpu.statIssuedInstType_0::total     1040220597                       # Number of instructions issued per FU type, per thread (Count)
system.cpu.issueRate                         2.766698                       # Inst issue rate ((Count/Cycle))
system.cpu.fuBusy                            60777835                       # FU busy when requested (Count)
system.cpu.fuBusyRate                        0.058428                       # FU busy rate (busy events/executed inst) ((Count/Count))
system.cpu.intInstQueueReads               2524474927                       # Number of integer instruction queue reads (Count)
system.cpu.intInstQueueWrites              2167767403                       # Number of integer instruction queue writes (Count)
system.cpu.intInstQueueWakeupAccesses       636777449                       # Number of integer instruction queue wakeup accesses (Count)
system.cpu.fpInstQueueReads                      3001                       # Number of floating instruction queue reads (Count)
system.cpu.fpInstQueueWrites                     3199                       # Number of floating instruction queue writes (Count)
system.cpu.fpInstQueueWakeupAccesses             1313                       # Number of floating instruction queue wakeup accesses (Count)
system.cpu.vecInstQueueReads                        0                       # Number of vector instruction queue reads (Count)
system.cpu.vecInstQueueWrites                       0                       # Number of vector instruction queue writes (Count)
system.cpu.vecInstQueueWakeupAccesses               0                       # Number of vector instruction queue wakeup accesses (Count)
system.cpu.intAluAccesses                   804549155                       # Number of integer alu accesses (Count)
system.cpu.fpAluAccesses                         1589                       # Number of floating point alu accesses (Count)
system.cpu.vecAluAccesses                           0                       # Number of vector alu accesses (Count)
system.cpu.numInsts                         948590518                       # Number of executed instructions (Count)
system.cpu.numLoadInsts                     283013380                       # Number of load instructions executed (Count)
system.cpu.numSquashedInsts                  91630069                       # Number of squashed instructions skipped in execute (Count)
system.cpu.numSwp                                   0                       # Number of swp insts executed (Count)
system.cpu.numNop                                   0                       # Number of nop insts executed (Count)
system.cpu.numRefs                          516090407                       # Number of memory reference insts executed (Count)
system.cpu.numBranches                       19191703                       # Number of branches executed (Count)
system.cpu.numStoreInsts                    233077027                       # Number of stores executed (Count)
system.cpu.numRate                           2.522987                       # Inst execution rate ((Count/Cycle))
system.cpu.timesIdled                             283                       # Number of times that the entire CPU went into an idle state and unscheduled itself (Count)
system.cpu.idleCycles                           12580                       # Total number of cycles that the CPU has spent unscheduled due to idling (Cycle)
system.cpu.committedInsts                    50000001                       # Number of Instructions Simulated (Count)
system.cpu.committedOps                      62368872                       # Number of Ops (including micro ops) Simulated (Count)
system.cpu.cpi                               7.519582                       # CPI: Cycles Per Instruction ((Cycle/Count))
system.cpu.totalCpi                          7.519582                       # CPI: Total CPI of All Threads ((Cycle/Count))
system.cpu.ipc                               0.132986                       # IPC: Instructions Per Cycle ((Count/Cycle))
system.cpu.totalIpc                          0.132986                       # IPC: Total IPC of All Threads ((Count/Cycle))
system.cpu.intRegfileReads                  916848639                       # Number of integer regfile reads (Count)
system.cpu.intRegfileWrites                 386647533                       # Number of integer regfile writes (Count)
system.cpu.fpRegfileReads                        2151                       # Number of floating regfile reads (Count)
system.cpu.fpRegfileWrites                        970                       # Number of floating regfile writes (Count)
system.cpu.ccRegfileReads                   110785615                       # number of cc regfile reads (Count)
system.cpu.ccRegfileWrites                   51173585                       # number of cc regfile writes (Count)
system.cpu.miscRegfileReads                 557572566                       # number of misc regfile reads (Count)
system.cpu.MemDepUnit__0.insertedLoads      321402405                       # Number of loads inserted to the mem dependence unit. (Count)
system.cpu.MemDepUnit__0.insertedStores     308416875                       # Number of stores inserted to the mem dependence unit. (Count)
system.cpu.MemDepUnit__0.conflictingLoads     10859235                       # Number of conflicting loads. (Count)
system.cpu.MemDepUnit__0.conflictingStores      2248796                       # Number of conflicting stores. (Count)
system.cpu.MemDepUnit__1.insertedLoads              0                       # Number of loads inserted to the mem dependence unit. (Count)
system.cpu.MemDepUnit__1.insertedStores             0                       # Number of stores inserted to the mem dependence unit. (Count)
system.cpu.MemDepUnit__1.conflictingLoads            0                       # Number of conflicting loads. (Count)
system.cpu.MemDepUnit__1.conflictingStores            0                       # Number of conflicting stores. (Count)
system.cpu.MemDepUnit__2.insertedLoads              0                       # Number of loads inserted to the mem dependence unit. (Count)
system.cpu.MemDepUnit__2.insertedStores             0                       # Number of stores inserted to the mem dependence unit. (Count)
system.cpu.MemDepUnit__2.conflictingLoads            0                       # Number of conflicting loads. (Count)
system.cpu.MemDepUnit__2.conflictingStores            0                       # Number of conflicting stores. (Count)
system.cpu.MemDepUnit__3.insertedLoads              0                       # Number of loads inserted to the mem dependence unit. (Count)
system.cpu.MemDepUnit__3.insertedStores             0                       # Number of stores inserted to the mem dependence unit. (Count)
system.cpu.MemDepUnit__3.conflictingLoads            0                       # Number of conflicting loads. (Count)
system.cpu.MemDepUnit__3.conflictingStores            0                       # Number of conflicting stores. (Count)
system.cpu.branchPred.lookups                25983325                       # Number of BP lookups (Count)
system.cpu.branchPred.condPredicted          25221855                       # Number of conditional branches predicted (Count)
system.cpu.branchPred.condIncorrect             26292                       # Number of conditional branches incorrect (Count)
system.cpu.branchPred.BTBLookups             25226570                       # Number of BTB lookups (Count)
system.cpu.branchPred.BTBHits                25225180                       # Number of BTB hits (Count)
system.cpu.branchPred.BTBHitRatio            0.999945                       # BTB Hit Ratio (Ratio)
system.cpu.branchPred.RASUsed                   24872                       # Number of times the RAS was used to get a target. (Count)
system.cpu.branchPred.RASIncorrect                  3                       # Number of incorrect RAS predictions. (Count)
system.cpu.branchPred.indirectLookups             290                       # Number of indirect predictor lookups. (Count)
system.cpu.branchPred.indirectHits                 60                       # Number of indirect target hits. (Count)
system.cpu.branchPred.indirectMisses              230                       # Number of indirect misses. (Count)
system.cpu.branchPred.indirectMispredicted           86                       # Number of mispredicted indirect branches. (Count)
system.cpu.commit.commitSquashedInsts       674013387                       # The number of squashed insts skipped by commit (Count)
system.cpu.commit.commitNonSpecStalls          888752                       # The number of times commit has been forced to stall to communicate backwards (Count)
system.cpu.commit.branchMispredicts             25830                       # The number of times a branch was mispredicted (Count)
system.cpu.commit.numCommittedDist::samples    288845234                       # Number of insts commited each cycle (Count)
system.cpu.commit.numCommittedDist::mean     0.215925                       # Number of insts commited each cycle (Count)
system.cpu.commit.numCommittedDist::stdev     1.094325                       # Number of insts commited each cycle (Count)
system.cpu.commit.numCommittedDist::underflows            0      0.00%      0.00% # Number of insts commited each cycle (Count)
system.cpu.commit.numCommittedDist::0       269007576     93.13%     93.13% # Number of insts commited each cycle (Count)
system.cpu.commit.numCommittedDist::1        10341135      3.58%     96.71% # Number of insts commited each cycle (Count)
system.cpu.commit.numCommittedDist::2         1801769      0.62%     97.34% # Number of insts commited each cycle (Count)
system.cpu.commit.numCommittedDist::3         2009943      0.70%     98.03% # Number of insts commited each cycle (Count)
system.cpu.commit.numCommittedDist::4          195550      0.07%     98.10% # Number of insts commited each cycle (Count)
system.cpu.commit.numCommittedDist::5          547814      0.19%     98.29% # Number of insts commited each cycle (Count)
system.cpu.commit.numCommittedDist::6          267788      0.09%     98.38% # Number of insts commited each cycle (Count)
system.cpu.commit.numCommittedDist::7          122900      0.04%     98.42% # Number of insts commited each cycle (Count)
system.cpu.commit.numCommittedDist::8         4550759      1.58%    100.00% # Number of insts commited each cycle (Count)
system.cpu.commit.numCommittedDist::overflows            0      0.00%    100.00% # Number of insts commited each cycle (Count)
system.cpu.commit.numCommittedDist::min_value            0                       # Number of insts commited each cycle (Count)
system.cpu.commit.numCommittedDist::max_value            8                       # Number of insts commited each cycle (Count)
system.cpu.commit.numCommittedDist::total    288845234                       # Number of insts commited each cycle (Count)
system.cpu.commit.instsCommitted             50000001                       # Number of instructions committed (Count)
system.cpu.commit.opsCommitted               62368872                       # Number of ops (including micro ops) committed (Count)
system.cpu.commit.memRefs                    36814370                       # Number of memory references committed (Count)
system.cpu.commit.loads                      25317332                       # Number of loads committed (Count)
system.cpu.commit.amos                              0                       # Number of atomic instructions committed (Count)
system.cpu.commit.membars                          48                       # Number of memory barriers committed (Count)
system.cpu.commit.branches                    3201949                       # Number of branches committed (Count)
system.cpu.commit.vectorInstructions                0                       # Number of committed Vector instructions. (Count)
system.cpu.commit.floating                        835                       # Number of committed floating point instructions. (Count)
system.cpu.commit.integer                    61431726                       # Number of committed integer instructions. (Count)
system.cpu.commit.functionCalls                 21390                       # Number of function calls committed. (Count)
system.cpu.commit.committedInstType_0::No_OpClass       888801      1.43%      1.43% # Class of committed instruction (Count)
system.cpu.commit.committedInstType_0::IntAlu     24534233     39.34%     40.76% # Class of committed instruction (Count)
system.cpu.commit.committedInstType_0::IntMult       130868      0.21%     40.97% # Class of committed instruction (Count)
system.cpu.commit.committedInstType_0::IntDiv           70      0.00%     40.97% # Class of committed instruction (Count)
system.cpu.commit.committedInstType_0::FloatAdd           21      0.00%     40.97% # Class of committed instruction (Count)
system.cpu.commit.committedInstType_0::FloatCmp            0      0.00%     40.97% # Class of committed instruction (Count)
system.cpu.commit.committedInstType_0::FloatCvt            0      0.00%     40.97% # Class of committed instruction (Count)
system.cpu.commit.committedInstType_0::FloatMult            0      0.00%     40.97% # Class of committed instruction (Count)
system.cpu.commit.committedInstType_0::FloatMultAcc            0      0.00%     40.97% # Class of committed instruction (Count)
system.cpu.commit.committedInstType_0::FloatDiv            0      0.00%     40.97% # Class of committed instruction (Count)
system.cpu.commit.committedInstType_0::FloatMisc            0      0.00%     40.97% # Class of committed instruction (Count)
system.cpu.commit.committedInstType_0::FloatSqrt            0      0.00%     40.97% # Class of committed instruction (Count)
system.cpu.commit.committedInstType_0::SimdAdd            0      0.00%     40.97% # Class of committed instruction (Count)
system.cpu.commit.committedInstType_0::SimdAddAcc            0      0.00%     40.97% # Class of committed instruction (Count)
system.cpu.commit.committedInstType_0::SimdAlu          142      0.00%     40.97% # Class of committed instruction (Count)
system.cpu.commit.committedInstType_0::SimdCmp            0      0.00%     40.97% # Class of committed instruction (Count)
system.cpu.commit.committedInstType_0::SimdCvt          126      0.00%     40.97% # Class of committed instruction (Count)
system.cpu.commit.committedInstType_0::SimdMisc          241      0.00%     40.97% # Class of committed instruction (Count)
system.cpu.commit.committedInstType_0::SimdMult            0      0.00%     40.97% # Class of committed instruction (Count)
system.cpu.commit.committedInstType_0::SimdMultAcc            0      0.00%     40.97% # Class of committed instruction (Count)
system.cpu.commit.committedInstType_0::SimdShift            0      0.00%     40.97% # Class of committed instruction (Count)
system.cpu.commit.committedInstType_0::SimdShiftAcc            0      0.00%     40.97% # Class of committed instruction (Count)
system.cpu.commit.committedInstType_0::SimdDiv            0      0.00%     40.97% # Class of committed instruction (Count)
system.cpu.commit.committedInstType_0::SimdSqrt            0      0.00%     40.97% # Class of committed instruction (Count)
system.cpu.commit.committedInstType_0::SimdFloatAdd            0      0.00%     40.97% # Class of committed instruction (Count)
system.cpu.commit.committedInstType_0::SimdFloatAlu            0      0.00%     40.97% # Class of committed instruction (Count)
system.cpu.commit.committedInstType_0::SimdFloatCmp            0      0.00%     40.97% # Class of committed instruction (Count)
system.cpu.commit.committedInstType_0::SimdFloatCvt            0      0.00%     40.97% # Class of committed instruction (Count)
system.cpu.commit.committedInstType_0::SimdFloatDiv            0      0.00%     40.97% # Class of committed instruction (Count)
system.cpu.commit.committedInstType_0::SimdFloatMisc            0      0.00%     40.97% # Class of committed instruction (Count)
system.cpu.commit.committedInstType_0::SimdFloatMult            0      0.00%     40.97% # Class of committed instruction (Count)
system.cpu.commit.committedInstType_0::SimdFloatMultAcc            0      0.00%     40.97% # Class of committed instruction (Count)
system.cpu.commit.committedInstType_0::SimdFloatSqrt            0      0.00%     40.97% # Class of committed instruction (Count)
system.cpu.commit.committedInstType_0::SimdReduceAdd            0      0.00%     40.97% # Class of committed instruction (Count)
system.cpu.commit.committedInstType_0::SimdReduceAlu            0      0.00%     40.97% # Class of committed instruction (Count)
system.cpu.commit.committedInstType_0::SimdReduceCmp            0      0.00%     40.97% # Class of committed instruction (Count)
system.cpu.commit.committedInstType_0::SimdFloatReduceAdd            0      0.00%     40.97% # Class of committed instruction (Count)
system.cpu.commit.committedInstType_0::SimdFloatReduceCmp            0      0.00%     40.97% # Class of committed instruction (Count)
system.cpu.commit.committedInstType_0::SimdAes            0      0.00%     40.97% # Class of committed instruction (Count)
system.cpu.commit.committedInstType_0::SimdAesMix            0      0.00%     40.97% # Class of committed instruction (Count)
system.cpu.commit.committedInstType_0::SimdSha1Hash            0      0.00%     40.97% # Class of committed instruction (Count)
system.cpu.commit.committedInstType_0::SimdSha1Hash2            0      0.00%     40.97% # Class of committed instruction (Count)
system.cpu.commit.committedInstType_0::SimdSha256Hash            0      0.00%     40.97% # Class of committed instruction (Count)
system.cpu.commit.committedInstType_0::SimdSha256Hash2            0      0.00%     40.97% # Class of committed instruction (Count)
system.cpu.commit.committedInstType_0::SimdShaSigma2            0      0.00%     40.97% # Class of committed instruction (Count)
system.cpu.commit.committedInstType_0::SimdShaSigma3            0      0.00%     40.97% # Class of committed instruction (Count)
system.cpu.commit.committedInstType_0::SimdPredAlu            0      0.00%     40.97% # Class of committed instruction (Count)
system.cpu.commit.committedInstType_0::MemRead     25317250     40.59%     81.57% # Class of committed instruction (Count)
system.cpu.commit.committedInstType_0::MemWrite     11496874     18.43%    100.00% # Class of committed instruction (Count)
system.cpu.commit.committedInstType_0::FloatMemRead           82      0.00%    100.00% # Class of committed instruction (Count)
system.cpu.commit.committedInstType_0::FloatMemWrite          164      0.00%    100.00% # Class of committed instruction (Count)
system.cpu.commit.committedInstType_0::IprAccess            0      0.00%    100.00% # Class of committed instruction (Count)
system.cpu.commit.committedInstType_0::InstPrefetch            0      0.00%    100.00% # Class of committed instruction (Count)
system.cpu.commit.committedInstType_0::total     62368872                       # Class of committed instruction (Count)
system.cpu.commit.commitEligibleSamples       4550759                       # number cycles where commit BW limit reached (Cycle)
system.cpu.dcache.demandHits::cpu.data      283850672                       # number of demand (read+write) hits (Count)
system.cpu.dcache.demandHits::total         283850672                       # number of demand (read+write) hits (Count)
system.cpu.dcache.overallHits::cpu.data     283850675                       # number of overall hits (Count)
system.cpu.dcache.overallHits::total        283850675                       # number of overall hits (Count)
system.cpu.dcache.demandMisses::cpu.data      2717496                       # number of demand (read+write) misses (Count)
system.cpu.dcache.demandMisses::total         2717496                       # number of demand (read+write) misses (Count)
system.cpu.dcache.overallMisses::cpu.data      2783035                       # number of overall misses (Count)
system.cpu.dcache.overallMisses::total        2783035                       # number of overall misses (Count)
system.cpu.dcache.demandMissLatency::cpu.data 205741971810                       # number of demand (read+write) miss ticks (Tick)
system.cpu.dcache.demandMissLatency::total 205741971810                       # number of demand (read+write) miss ticks (Tick)
system.cpu.dcache.overallMissLatency::cpu.data 205741971810                       # number of overall miss ticks (Tick)
system.cpu.dcache.overallMissLatency::total 205741971810                       # number of overall miss ticks (Tick)
system.cpu.dcache.demandAccesses::cpu.data    286568168                       # number of demand (read+write) accesses (Count)
system.cpu.dcache.demandAccesses::total     286568168                       # number of demand (read+write) accesses (Count)
system.cpu.dcache.overallAccesses::cpu.data    286633710                       # number of overall (read+write) accesses (Count)
system.cpu.dcache.overallAccesses::total    286633710                       # number of overall (read+write) accesses (Count)
system.cpu.dcache.demandMissRate::cpu.data     0.009483                       # miss rate for demand accesses (Ratio)
system.cpu.dcache.demandMissRate::total      0.009483                       # miss rate for demand accesses (Ratio)
system.cpu.dcache.overallMissRate::cpu.data     0.009709                       # miss rate for overall accesses (Ratio)
system.cpu.dcache.overallMissRate::total     0.009709                       # miss rate for overall accesses (Ratio)
system.cpu.dcache.demandAvgMissLatency::cpu.data 75710.128666                       # average overall miss latency in ticks ((Tick/Count))
system.cpu.dcache.demandAvgMissLatency::total 75710.128666                       # average overall miss latency in ticks ((Tick/Count))
system.cpu.dcache.overallAvgMissLatency::cpu.data 73927.195242                       # average overall miss latency ((Tick/Count))
system.cpu.dcache.overallAvgMissLatency::total 73927.195242                       # average overall miss latency ((Tick/Count))
system.cpu.dcache.blockedCycles::no_mshrs      4582049                       # number of cycles access was blocked (Cycle)
system.cpu.dcache.blockedCycles::no_targets        36037                       # number of cycles access was blocked (Cycle)
system.cpu.dcache.blockedCauses::no_mshrs       156081                       # number of times access was blocked (Count)
system.cpu.dcache.blockedCauses::no_targets          363                       # number of times access was blocked (Count)
system.cpu.dcache.avgBlocked::no_mshrs      29.356866                       # average number of cycles each access was blocked ((Cycle/Count))
system.cpu.dcache.avgBlocked::no_targets    99.275482                       # average number of cycles each access was blocked ((Cycle/Count))
system.cpu.dcache.writebacks::writebacks      1124749                       # number of writebacks (Count)
system.cpu.dcache.writebacks::total           1124749                       # number of writebacks (Count)
system.cpu.dcache.demandMshrHits::cpu.data      1646949                       # number of demand (read+write) MSHR hits (Count)
system.cpu.dcache.demandMshrHits::total       1646949                       # number of demand (read+write) MSHR hits (Count)
system.cpu.dcache.overallMshrHits::cpu.data      1646949                       # number of overall MSHR hits (Count)
system.cpu.dcache.overallMshrHits::total      1646949                       # number of overall MSHR hits (Count)
system.cpu.dcache.demandMshrMisses::cpu.data      1070547                       # number of demand (read+write) MSHR misses (Count)
system.cpu.dcache.demandMshrMisses::total      1070547                       # number of demand (read+write) MSHR misses (Count)
system.cpu.dcache.overallMshrMisses::cpu.data      1136086                       # number of overall MSHR misses (Count)
system.cpu.dcache.overallMshrMisses::cpu.dcache.prefetcher       982242                       # number of overall MSHR misses (Count)
system.cpu.dcache.overallMshrMisses::total      2118328                       # number of overall MSHR misses (Count)
system.cpu.dcache.demandMshrMissLatency::cpu.data  84239485813                       # number of demand (read+write) MSHR miss ticks (Tick)
system.cpu.dcache.demandMshrMissLatency::total  84239485813                       # number of demand (read+write) MSHR miss ticks (Tick)
system.cpu.dcache.overallMshrMissLatency::cpu.data  90175998813                       # number of overall MSHR miss ticks (Tick)
system.cpu.dcache.overallMshrMissLatency::cpu.dcache.prefetcher  61913428677                       # number of overall MSHR miss ticks (Tick)
system.cpu.dcache.overallMshrMissLatency::total 152089427490                       # number of overall MSHR miss ticks (Tick)
system.cpu.dcache.demandMshrMissRate::cpu.data     0.003736                       # mshr miss ratio for demand accesses (Ratio)
system.cpu.dcache.demandMshrMissRate::total     0.003736                       # mshr miss ratio for demand accesses (Ratio)
system.cpu.dcache.overallMshrMissRate::cpu.data     0.003964                       # mshr miss ratio for overall accesses (Ratio)
system.cpu.dcache.overallMshrMissRate::cpu.dcache.prefetcher          inf                       # mshr miss ratio for overall accesses (Ratio)
system.cpu.dcache.overallMshrMissRate::total     0.007390                       # mshr miss ratio for overall accesses (Ratio)
system.cpu.dcache.demandAvgMshrMissLatency::cpu.data 78688.264796                       # average overall mshr miss latency ((Tick/Count))
system.cpu.dcache.demandAvgMshrMissLatency::total 78688.264796                       # average overall mshr miss latency ((Tick/Count))
system.cpu.dcache.overallAvgMshrMissLatency::cpu.data 79374.271677                       # average overall mshr miss latency ((Tick/Count))
system.cpu.dcache.overallAvgMshrMissLatency::cpu.dcache.prefetcher 63032.764509                       # average overall mshr miss latency ((Tick/Count))
system.cpu.dcache.overallAvgMshrMissLatency::total 71796.920727                       # average overall mshr miss latency ((Tick/Count))
system.cpu.dcache.replacements                2117304                       # number of replacements (Count)
system.cpu.dcache.HardPFReq.mshrMisses::cpu.dcache.prefetcher       982242                       # number of HardPFReq MSHR misses (Count)
system.cpu.dcache.HardPFReq.mshrMisses::total       982242                       # number of HardPFReq MSHR misses (Count)
system.cpu.dcache.HardPFReq.mshrMissLatency::cpu.dcache.prefetcher  61913428677                       # number of HardPFReq MSHR miss ticks (Tick)
system.cpu.dcache.HardPFReq.mshrMissLatency::total  61913428677                       # number of HardPFReq MSHR miss ticks (Tick)
system.cpu.dcache.HardPFReq.mshrMissRate::cpu.dcache.prefetcher          inf                       # mshr miss rate for HardPFReq accesses (Ratio)
system.cpu.dcache.HardPFReq.mshrMissRate::total          inf                       # mshr miss rate for HardPFReq accesses (Ratio)
system.cpu.dcache.HardPFReq.avgMshrMissLatency::cpu.dcache.prefetcher 63032.764509                       # average HardPFReq mshr miss latency ((Tick/Count))
system.cpu.dcache.HardPFReq.avgMshrMissLatency::total 63032.764509                       # average HardPFReq mshr miss latency ((Tick/Count))
system.cpu.dcache.LockedRMWReadReq.hits::cpu.data           24                       # number of LockedRMWReadReq hits (Count)
system.cpu.dcache.LockedRMWReadReq.hits::total           24                       # number of LockedRMWReadReq hits (Count)
system.cpu.dcache.LockedRMWReadReq.accesses::cpu.data           24                       # number of LockedRMWReadReq accesses(hits+misses) (Count)
system.cpu.dcache.LockedRMWReadReq.accesses::total           24                       # number of LockedRMWReadReq accesses(hits+misses) (Count)
system.cpu.dcache.LockedRMWReadReq.mshrMissLatency::cpu.data       321000                       # number of LockedRMWReadReq MSHR miss ticks (Tick)
system.cpu.dcache.LockedRMWReadReq.mshrMissLatency::total       321000                       # number of LockedRMWReadReq MSHR miss ticks (Tick)
system.cpu.dcache.LockedRMWReadReq.avgMshrMissLatency::cpu.data          inf                       # average LockedRMWReadReq mshr miss latency ((Tick/Count))
system.cpu.dcache.LockedRMWReadReq.avgMshrMissLatency::total          inf                       # average LockedRMWReadReq mshr miss latency ((Tick/Count))
system.cpu.dcache.LockedRMWWriteReq.hits::cpu.data           24                       # number of LockedRMWWriteReq hits (Count)
system.cpu.dcache.LockedRMWWriteReq.hits::total           24                       # number of LockedRMWWriteReq hits (Count)
system.cpu.dcache.LockedRMWWriteReq.accesses::cpu.data           24                       # number of LockedRMWWriteReq accesses(hits+misses) (Count)
system.cpu.dcache.LockedRMWWriteReq.accesses::total           24                       # number of LockedRMWWriteReq accesses(hits+misses) (Count)
system.cpu.dcache.ReadReq.hits::cpu.data    272933872                       # number of ReadReq hits (Count)
system.cpu.dcache.ReadReq.hits::total       272933872                       # number of ReadReq hits (Count)
system.cpu.dcache.ReadReq.misses::cpu.data      2137283                       # number of ReadReq misses (Count)
system.cpu.dcache.ReadReq.misses::total       2137283                       # number of ReadReq misses (Count)
system.cpu.dcache.ReadReq.missLatency::cpu.data 162719975000                       # number of ReadReq miss ticks (Tick)
system.cpu.dcache.ReadReq.missLatency::total 162719975000                       # number of ReadReq miss ticks (Tick)
system.cpu.dcache.ReadReq.accesses::cpu.data    275071155                       # number of ReadReq accesses(hits+misses) (Count)
system.cpu.dcache.ReadReq.accesses::total    275071155                       # number of ReadReq accesses(hits+misses) (Count)
system.cpu.dcache.ReadReq.missRate::cpu.data     0.007770                       # miss rate for ReadReq accesses (Ratio)
system.cpu.dcache.ReadReq.missRate::total     0.007770                       # miss rate for ReadReq accesses (Ratio)
system.cpu.dcache.ReadReq.avgMissLatency::cpu.data 76134.033256                       # average ReadReq miss latency ((Tick/Count))
system.cpu.dcache.ReadReq.avgMissLatency::total 76134.033256                       # average ReadReq miss latency ((Tick/Count))
system.cpu.dcache.ReadReq.mshrHits::cpu.data      1630335                       # number of ReadReq MSHR hits (Count)
system.cpu.dcache.ReadReq.mshrHits::total      1630335                       # number of ReadReq MSHR hits (Count)
system.cpu.dcache.ReadReq.mshrMisses::cpu.data       506948                       # number of ReadReq MSHR misses (Count)
system.cpu.dcache.ReadReq.mshrMisses::total       506948                       # number of ReadReq MSHR misses (Count)
system.cpu.dcache.ReadReq.mshrMissLatency::cpu.data  43316632000                       # number of ReadReq MSHR miss ticks (Tick)
system.cpu.dcache.ReadReq.mshrMissLatency::total  43316632000                       # number of ReadReq MSHR miss ticks (Tick)
system.cpu.dcache.ReadReq.mshrMissRate::cpu.data     0.001843                       # mshr miss rate for ReadReq accesses (Ratio)
system.cpu.dcache.ReadReq.mshrMissRate::total     0.001843                       # mshr miss rate for ReadReq accesses (Ratio)
system.cpu.dcache.ReadReq.avgMshrMissLatency::cpu.data 85445.907667                       # average ReadReq mshr miss latency ((Tick/Count))
system.cpu.dcache.ReadReq.avgMshrMissLatency::total 85445.907667                       # average ReadReq mshr miss latency ((Tick/Count))
system.cpu.dcache.SoftPFReq.hits::cpu.data            3                       # number of SoftPFReq hits (Count)
system.cpu.dcache.SoftPFReq.hits::total             3                       # number of SoftPFReq hits (Count)
system.cpu.dcache.SoftPFReq.misses::cpu.data        65539                       # number of SoftPFReq misses (Count)
system.cpu.dcache.SoftPFReq.misses::total        65539                       # number of SoftPFReq misses (Count)
system.cpu.dcache.SoftPFReq.accesses::cpu.data        65542                       # number of SoftPFReq accesses(hits+misses) (Count)
system.cpu.dcache.SoftPFReq.accesses::total        65542                       # number of SoftPFReq accesses(hits+misses) (Count)
system.cpu.dcache.SoftPFReq.missRate::cpu.data     0.999954                       # miss rate for SoftPFReq accesses (Ratio)
system.cpu.dcache.SoftPFReq.missRate::total     0.999954                       # miss rate for SoftPFReq accesses (Ratio)
system.cpu.dcache.SoftPFReq.mshrMisses::cpu.data        65539                       # number of SoftPFReq MSHR misses (Count)
system.cpu.dcache.SoftPFReq.mshrMisses::total        65539                       # number of SoftPFReq MSHR misses (Count)
system.cpu.dcache.SoftPFReq.mshrMissLatency::cpu.data   5936513000                       # number of SoftPFReq MSHR miss ticks (Tick)
system.cpu.dcache.SoftPFReq.mshrMissLatency::total   5936513000                       # number of SoftPFReq MSHR miss ticks (Tick)
system.cpu.dcache.SoftPFReq.mshrMissRate::cpu.data     0.999954                       # mshr miss rate for SoftPFReq accesses (Ratio)
system.cpu.dcache.SoftPFReq.mshrMissRate::total     0.999954                       # mshr miss rate for SoftPFReq accesses (Ratio)
system.cpu.dcache.SoftPFReq.avgMshrMissLatency::cpu.data 90579.853217                       # average SoftPFReq mshr miss latency ((Tick/Count))
system.cpu.dcache.SoftPFReq.avgMshrMissLatency::total 90579.853217                       # average SoftPFReq mshr miss latency ((Tick/Count))
system.cpu.dcache.WriteReq.hits::cpu.data     10916800                       # number of WriteReq hits (Count)
system.cpu.dcache.WriteReq.hits::total       10916800                       # number of WriteReq hits (Count)
system.cpu.dcache.WriteReq.misses::cpu.data       580213                       # number of WriteReq misses (Count)
system.cpu.dcache.WriteReq.misses::total       580213                       # number of WriteReq misses (Count)
system.cpu.dcache.WriteReq.missLatency::cpu.data  43021996810                       # number of WriteReq miss ticks (Tick)
system.cpu.dcache.WriteReq.missLatency::total  43021996810                       # number of WriteReq miss ticks (Tick)
system.cpu.dcache.WriteReq.accesses::cpu.data     11497013                       # number of WriteReq accesses(hits+misses) (Count)
system.cpu.dcache.WriteReq.accesses::total     11497013                       # number of WriteReq accesses(hits+misses) (Count)
system.cpu.dcache.WriteReq.missRate::cpu.data     0.050466                       # miss rate for WriteReq accesses (Ratio)
system.cpu.dcache.WriteReq.missRate::total     0.050466                       # miss rate for WriteReq accesses (Ratio)
system.cpu.dcache.WriteReq.avgMissLatency::cpu.data 74148.626125                       # average WriteReq miss latency ((Tick/Count))
system.cpu.dcache.WriteReq.avgMissLatency::total 74148.626125                       # average WriteReq miss latency ((Tick/Count))
system.cpu.dcache.WriteReq.mshrHits::cpu.data        16614                       # number of WriteReq MSHR hits (Count)
system.cpu.dcache.WriteReq.mshrHits::total        16614                       # number of WriteReq MSHR hits (Count)
system.cpu.dcache.WriteReq.mshrMisses::cpu.data       563599                       # number of WriteReq MSHR misses (Count)
system.cpu.dcache.WriteReq.mshrMisses::total       563599                       # number of WriteReq MSHR misses (Count)
system.cpu.dcache.WriteReq.mshrMissLatency::cpu.data  40922853813                       # number of WriteReq MSHR miss ticks (Tick)
system.cpu.dcache.WriteReq.mshrMissLatency::total  40922853813                       # number of WriteReq MSHR miss ticks (Tick)
system.cpu.dcache.WriteReq.mshrMissRate::cpu.data     0.049021                       # mshr miss rate for WriteReq accesses (Ratio)
system.cpu.dcache.WriteReq.mshrMissRate::total     0.049021                       # mshr miss rate for WriteReq accesses (Ratio)
system.cpu.dcache.WriteReq.avgMshrMissLatency::cpu.data 72609.876549                       # average WriteReq mshr miss latency ((Tick/Count))
system.cpu.dcache.WriteReq.avgMshrMissLatency::total 72609.876549                       # average WriteReq mshr miss latency ((Tick/Count))
system.cpu.dcache.power_state.pwrStateResidencyTicks::UNDEFINED 375979087000                       # Cumulative time (in ticks) in various power states (Tick)
system.cpu.dcache.prefetcher.demandMshrMisses      1070547                       # demands not covered by prefetchs (Count)
system.cpu.dcache.prefetcher.pfIssued         1020881                       # number of hwpf issued (Count)
system.cpu.dcache.prefetcher.pfUnused              90                       # number of HardPF blocks evicted w/o reference (Count)
system.cpu.dcache.prefetcher.pfUseful          964195                       # number of useful prefetch (Count)
system.cpu.dcache.prefetcher.pfUsefulButMiss            0                       # number of hit on prefetch but cache block is not in an usable state (Count)
system.cpu.dcache.prefetcher.accuracy        0.944473                       # accuracy of the prefetcher (Count)
system.cpu.dcache.prefetcher.coverage        0.473866                       # coverage brought by this prefetcher (Count)
system.cpu.dcache.prefetcher.pfHitInCache        38591                       # number of prefetches hitting in cache (Count)
system.cpu.dcache.prefetcher.pfHitInMSHR           47                       # number of prefetches hitting in a MSHR (Count)
system.cpu.dcache.prefetcher.pfHitInWB              1                       # number of prefetches hit in the Write Buffer (Count)
system.cpu.dcache.prefetcher.pfLate             38639                       # number of late prefetches (hitting in cache, MSHR or WB) (Count)
system.cpu.dcache.prefetcher.pfIdentified      1224509                       # number of prefetch candidates identified (Count)
system.cpu.dcache.prefetcher.pfBufferHit       140333                       # number of redundant prefetches already in prefetch queue (Count)
system.cpu.dcache.prefetcher.pfInCache              0                       # number of redundant prefetches already in cache/mshr dropped (Count)
system.cpu.dcache.prefetcher.pfRemovedDemand         8590                       # number of prefetches dropped due to a demand for the same address (Count)
system.cpu.dcache.prefetcher.pfRemovedFull            0                       # number of prefetches dropped due to prefetch queue size (Count)
system.cpu.dcache.prefetcher.pfSpanPage        314767                       # number of prefetches that crossed the page (Count)
system.cpu.dcache.prefetcher.pfUsefulSpanPage            0                       # number of prefetches that is useful and crossed the page (Count)
system.cpu.dcache.prefetcher.power_state.pwrStateResidencyTicks::UNDEFINED 375979087000                       # Cumulative time (in ticks) in various power states (Tick)
system.cpu.dcache.tags.tagsInUse           991.876057                       # Average ticks per tags in use ((Tick/Count))
system.cpu.dcache.tags.totalRefs            285969051                       # Total number of references to valid blocks. (Count)
system.cpu.dcache.tags.sampledRefs            2118328                       # Sample count of references to valid blocks. (Count)
system.cpu.dcache.tags.avgRefs             134.997532                       # Average number of references to valid blocks. ((Count/Count))
system.cpu.dcache.tags.warmupTick              200000                       # The tick when the warmup percentage was hit. (Tick)
system.cpu.dcache.tags.occupancies::cpu.data   504.992858                       # Average occupied blocks per tick, per requestor ((Count/Tick))
system.cpu.dcache.tags.occupancies::cpu.dcache.prefetcher   486.883199                       # Average occupied blocks per tick, per requestor ((Count/Tick))
system.cpu.dcache.tags.avgOccs::cpu.data     0.493157                       # Average percentage of cache occupancy ((Ratio/Tick))
system.cpu.dcache.tags.avgOccs::cpu.dcache.prefetcher     0.475472                       # Average percentage of cache occupancy ((Ratio/Tick))
system.cpu.dcache.tags.avgOccs::total        0.968629                       # Average percentage of cache occupancy ((Ratio/Tick))
system.cpu.dcache.tags.occupanciesTaskId::1022          346                       # Occupied blocks per task id (Count)
system.cpu.dcache.tags.occupanciesTaskId::1024          678                       # Occupied blocks per task id (Count)
system.cpu.dcache.tags.ageTaskId_1022::2          238                       # Occupied blocks per task id, per block age (Count)
system.cpu.dcache.tags.ageTaskId_1022::3           98                       # Occupied blocks per task id, per block age (Count)
system.cpu.dcache.tags.ageTaskId_1022::4           10                       # Occupied blocks per task id, per block age (Count)
system.cpu.dcache.tags.ageTaskId_1024::0            3                       # Occupied blocks per task id, per block age (Count)
system.cpu.dcache.tags.ageTaskId_1024::1           20                       # Occupied blocks per task id, per block age (Count)
system.cpu.dcache.tags.ageTaskId_1024::2          361                       # Occupied blocks per task id, per block age (Count)
system.cpu.dcache.tags.ageTaskId_1024::3          188                       # Occupied blocks per task id, per block age (Count)
system.cpu.dcache.tags.ageTaskId_1024::4          106                       # Occupied blocks per task id, per block age (Count)
system.cpu.dcache.tags.ratioOccsTaskId::1022     0.337891                       # Ratio of occupied blocks and all blocks, per task id (Ratio)
system.cpu.dcache.tags.ratioOccsTaskId::1024     0.662109                       # Ratio of occupied blocks and all blocks, per task id (Ratio)
system.cpu.dcache.tags.tagAccesses         1148653360                       # Number of tag accesses (Count)
system.cpu.dcache.tags.dataAccesses        1148653360                       # Number of data accesses (Count)
system.cpu.dcache.tags.power_state.pwrStateResidencyTicks::UNDEFINED 375979087000                       # Cumulative time (in ticks) in various power states (Tick)
system.cpu.decode.idleCycles                 70319173                       # Number of cycles decode is idle (Cycle)
system.cpu.decode.blockedCycles             123160393                       # Number of cycles decode is blocked (Cycle)
system.cpu.decode.runCycles                 162426097                       # Number of cycles decode is running (Cycle)
system.cpu.decode.unblockCycles              12874247                       # Number of cycles decode is unblocking (Cycle)
system.cpu.decode.squashCycles                7186610                       # Number of cycles decode is squashing (Cycle)
system.cpu.decode.branchResolved             24352250                       # Number of times decode resolved a branch (Count)
system.cpu.decode.branchMispred                   478                       # Number of times decode detected a branch misprediction (Count)
system.cpu.decode.decodedInsts             1192477145                       # Number of instructions handled by decode (Count)
system.cpu.decode.squashedInsts                  2351                       # Number of squashed instructions handled by decode (Count)
system.cpu.fetch.icacheStallCycles          100045994                       # Number of cycles fetch is stalled on an Icache miss (Cycle)
system.cpu.fetch.insts                      854429331                       # Number of instructions fetch has processed (Count)
system.cpu.fetch.branches                    25983325                       # Number of branches that fetch encountered (Count)
system.cpu.fetch.predictedBranches           25250112                       # Number of branches that fetch has predicted taken (Count)
system.cpu.fetch.cycles                     268733320                       # Number of cycles fetch has run and was not squashing or blocked (Cycle)
system.cpu.fetch.squashCycles                14374158                       # Number of cycles fetch has spent squashing (Cycle)
system.cpu.fetch.miscStallCycles                   21                       # Number of cycles fetch has spent waiting on interrupts, or bad addresses, or out of MSHRs (Cycle)
system.cpu.fetch.pendingTrapStallCycles            83                       # Number of stall cycles due to pending traps (Cycle)
system.cpu.fetch.icacheWaitRetryStallCycles           23                       # Number of stall cycles due to full MSHR (Cycle)
system.cpu.fetch.cacheLines                  96434326                       # Number of cache lines fetched (Count)
system.cpu.fetch.icacheSquashes               3198622                       # Number of outstanding Icache misses that were squashed (Count)
system.cpu.fetch.nisnDist::samples          375966520                       # Number of instructions fetched each cycle (Total) (Count)
system.cpu.fetch.nisnDist::mean              3.319003                       # Number of instructions fetched each cycle (Total) (Count)
system.cpu.fetch.nisnDist::stdev             3.451033                       # Number of instructions fetched each cycle (Total) (Count)
system.cpu.fetch.nisnDist::underflows               0      0.00%      0.00% # Number of instructions fetched each cycle (Total) (Count)
system.cpu.fetch.nisnDist::0                168013404     44.69%     44.69% # Number of instructions fetched each cycle (Total) (Count)
system.cpu.fetch.nisnDist::1                  5561858      1.48%     46.17% # Number of instructions fetched each cycle (Total) (Count)
system.cpu.fetch.nisnDist::2                  3696597      0.98%     47.15% # Number of instructions fetched each cycle (Total) (Count)
system.cpu.fetch.nisnDist::3                 44635179     11.87%     59.02% # Number of instructions fetched each cycle (Total) (Count)
system.cpu.fetch.nisnDist::4                 21138951      5.62%     64.65% # Number of instructions fetched each cycle (Total) (Count)
system.cpu.fetch.nisnDist::5                  4262236      1.13%     65.78% # Number of instructions fetched each cycle (Total) (Count)
system.cpu.fetch.nisnDist::6                 15305515      4.07%     69.85% # Number of instructions fetched each cycle (Total) (Count)
system.cpu.fetch.nisnDist::7                  3548926      0.94%     70.79% # Number of instructions fetched each cycle (Total) (Count)
system.cpu.fetch.nisnDist::8                109803854     29.21%    100.00% # Number of instructions fetched each cycle (Total) (Count)
system.cpu.fetch.nisnDist::overflows                0      0.00%    100.00% # Number of instructions fetched each cycle (Total) (Count)
system.cpu.fetch.nisnDist::min_value                0                       # Number of instructions fetched each cycle (Total) (Count)
system.cpu.fetch.nisnDist::max_value                8                       # Number of instructions fetched each cycle (Total) (Count)
system.cpu.fetch.nisnDist::total            375966520                       # Number of instructions fetched each cycle (Total) (Count)
system.cpu.fetch.branchRate                  0.069108                       # Number of branch fetches per cycle (Ratio)
system.cpu.fetch.rate                        2.272545                       # Number of inst fetches per cycle ((Count/Cycle))
system.cpu.icache.demandHits::cpu.inst       96433462                       # number of demand (read+write) hits (Count)
system.cpu.icache.demandHits::total          96433462                       # number of demand (read+write) hits (Count)
system.cpu.icache.overallHits::cpu.inst      96433462                       # number of overall hits (Count)
system.cpu.icache.overallHits::total         96433462                       # number of overall hits (Count)
system.cpu.icache.demandMisses::cpu.inst          864                       # number of demand (read+write) misses (Count)
system.cpu.icache.demandMisses::total             864                       # number of demand (read+write) misses (Count)
system.cpu.icache.overallMisses::cpu.inst          864                       # number of overall misses (Count)
system.cpu.icache.overallMisses::total            864                       # number of overall misses (Count)
system.cpu.icache.demandMissLatency::cpu.inst     66122999                       # number of demand (read+write) miss ticks (Tick)
system.cpu.icache.demandMissLatency::total     66122999                       # number of demand (read+write) miss ticks (Tick)
system.cpu.icache.overallMissLatency::cpu.inst     66122999                       # number of overall miss ticks (Tick)
system.cpu.icache.overallMissLatency::total     66122999                       # number of overall miss ticks (Tick)
system.cpu.icache.demandAccesses::cpu.inst     96434326                       # number of demand (read+write) accesses (Count)
system.cpu.icache.demandAccesses::total      96434326                       # number of demand (read+write) accesses (Count)
system.cpu.icache.overallAccesses::cpu.inst     96434326                       # number of overall (read+write) accesses (Count)
system.cpu.icache.overallAccesses::total     96434326                       # number of overall (read+write) accesses (Count)
system.cpu.icache.demandMissRate::cpu.inst     0.000009                       # miss rate for demand accesses (Ratio)
system.cpu.icache.demandMissRate::total      0.000009                       # miss rate for demand accesses (Ratio)
system.cpu.icache.overallMissRate::cpu.inst     0.000009                       # miss rate for overall accesses (Ratio)
system.cpu.icache.overallMissRate::total     0.000009                       # miss rate for overall accesses (Ratio)
system.cpu.icache.demandAvgMissLatency::cpu.inst 76531.248843                       # average overall miss latency in ticks ((Tick/Count))
system.cpu.icache.demandAvgMissLatency::total 76531.248843                       # average overall miss latency in ticks ((Tick/Count))
system.cpu.icache.overallAvgMissLatency::cpu.inst 76531.248843                       # average overall miss latency ((Tick/Count))
system.cpu.icache.overallAvgMissLatency::total 76531.248843                       # average overall miss latency ((Tick/Count))
system.cpu.icache.blockedCycles::no_mshrs          145                       # number of cycles access was blocked (Cycle)
system.cpu.icache.blockedCycles::no_targets            0                       # number of cycles access was blocked (Cycle)
system.cpu.icache.blockedCauses::no_mshrs            6                       # number of times access was blocked (Count)
system.cpu.icache.blockedCauses::no_targets            0                       # number of times access was blocked (Count)
system.cpu.icache.avgBlocked::no_mshrs      24.166667                       # average number of cycles each access was blocked ((Cycle/Count))
system.cpu.icache.avgBlocked::no_targets          nan                       # average number of cycles each access was blocked ((Cycle/Count))
system.cpu.icache.demandMshrHits::cpu.inst          255                       # number of demand (read+write) MSHR hits (Count)
system.cpu.icache.demandMshrHits::total           255                       # number of demand (read+write) MSHR hits (Count)
system.cpu.icache.overallMshrHits::cpu.inst          255                       # number of overall MSHR hits (Count)
system.cpu.icache.overallMshrHits::total          255                       # number of overall MSHR hits (Count)
system.cpu.icache.demandMshrMisses::cpu.inst          609                       # number of demand (read+write) MSHR misses (Count)
system.cpu.icache.demandMshrMisses::total          609                       # number of demand (read+write) MSHR misses (Count)
system.cpu.icache.overallMshrMisses::cpu.inst          609                       # number of overall MSHR misses (Count)
system.cpu.icache.overallMshrMisses::total          609                       # number of overall MSHR misses (Count)
system.cpu.icache.demandMshrMissLatency::cpu.inst     50821999                       # number of demand (read+write) MSHR miss ticks (Tick)
system.cpu.icache.demandMshrMissLatency::total     50821999                       # number of demand (read+write) MSHR miss ticks (Tick)
system.cpu.icache.overallMshrMissLatency::cpu.inst     50821999                       # number of overall MSHR miss ticks (Tick)
system.cpu.icache.overallMshrMissLatency::total     50821999                       # number of overall MSHR miss ticks (Tick)
system.cpu.icache.demandMshrMissRate::cpu.inst     0.000006                       # mshr miss ratio for demand accesses (Ratio)
system.cpu.icache.demandMshrMissRate::total     0.000006                       # mshr miss ratio for demand accesses (Ratio)
system.cpu.icache.overallMshrMissRate::cpu.inst     0.000006                       # mshr miss ratio for overall accesses (Ratio)
system.cpu.icache.overallMshrMissRate::total     0.000006                       # mshr miss ratio for overall accesses (Ratio)
system.cpu.icache.demandAvgMshrMissLatency::cpu.inst 83451.558292                       # average overall mshr miss latency ((Tick/Count))
system.cpu.icache.demandAvgMshrMissLatency::total 83451.558292                       # average overall mshr miss latency ((Tick/Count))
system.cpu.icache.overallAvgMshrMissLatency::cpu.inst 83451.558292                       # average overall mshr miss latency ((Tick/Count))
system.cpu.icache.overallAvgMshrMissLatency::total 83451.558292                       # average overall mshr miss latency ((Tick/Count))
system.cpu.icache.replacements                     36                       # number of replacements (Count)
system.cpu.icache.ReadReq.hits::cpu.inst     96433462                       # number of ReadReq hits (Count)
system.cpu.icache.ReadReq.hits::total        96433462                       # number of ReadReq hits (Count)
system.cpu.icache.ReadReq.misses::cpu.inst          864                       # number of ReadReq misses (Count)
system.cpu.icache.ReadReq.misses::total           864                       # number of ReadReq misses (Count)
system.cpu.icache.ReadReq.missLatency::cpu.inst     66122999                       # number of ReadReq miss ticks (Tick)
system.cpu.icache.ReadReq.missLatency::total     66122999                       # number of ReadReq miss ticks (Tick)
system.cpu.icache.ReadReq.accesses::cpu.inst     96434326                       # number of ReadReq accesses(hits+misses) (Count)
system.cpu.icache.ReadReq.accesses::total     96434326                       # number of ReadReq accesses(hits+misses) (Count)
system.cpu.icache.ReadReq.missRate::cpu.inst     0.000009                       # miss rate for ReadReq accesses (Ratio)
system.cpu.icache.ReadReq.missRate::total     0.000009                       # miss rate for ReadReq accesses (Ratio)
system.cpu.icache.ReadReq.avgMissLatency::cpu.inst 76531.248843                       # average ReadReq miss latency ((Tick/Count))
system.cpu.icache.ReadReq.avgMissLatency::total 76531.248843                       # average ReadReq miss latency ((Tick/Count))
system.cpu.icache.ReadReq.mshrHits::cpu.inst          255                       # number of ReadReq MSHR hits (Count)
system.cpu.icache.ReadReq.mshrHits::total          255                       # number of ReadReq MSHR hits (Count)
system.cpu.icache.ReadReq.mshrMisses::cpu.inst          609                       # number of ReadReq MSHR misses (Count)
system.cpu.icache.ReadReq.mshrMisses::total          609                       # number of ReadReq MSHR misses (Count)
system.cpu.icache.ReadReq.mshrMissLatency::cpu.inst     50821999                       # number of ReadReq MSHR miss ticks (Tick)
system.cpu.icache.ReadReq.mshrMissLatency::total     50821999                       # number of ReadReq MSHR miss ticks (Tick)
system.cpu.icache.ReadReq.mshrMissRate::cpu.inst     0.000006                       # mshr miss rate for ReadReq accesses (Ratio)
system.cpu.icache.ReadReq.mshrMissRate::total     0.000006                       # mshr miss rate for ReadReq accesses (Ratio)
system.cpu.icache.ReadReq.avgMshrMissLatency::cpu.inst 83451.558292                       # average ReadReq mshr miss latency ((Tick/Count))
system.cpu.icache.ReadReq.avgMshrMissLatency::total 83451.558292                       # average ReadReq mshr miss latency ((Tick/Count))
system.cpu.icache.power_state.pwrStateResidencyTicks::UNDEFINED 375979087000                       # Cumulative time (in ticks) in various power states (Tick)
system.cpu.icache.prefetcher.demandMshrMisses          609                       # demands not covered by prefetchs (Count)
system.cpu.icache.prefetcher.pfIssued               0                       # number of hwpf issued (Count)
system.cpu.icache.prefetcher.pfUseful               0                       # number of useful prefetch (Count)
system.cpu.icache.prefetcher.pfUsefulButMiss            0                       # number of hit on prefetch but cache block is not in an usable state (Count)
system.cpu.icache.prefetcher.accuracy             nan                       # accuracy of the prefetcher (Count)
system.cpu.icache.prefetcher.coverage               0                       # coverage brought by this prefetcher (Count)
system.cpu.icache.prefetcher.pfHitInCache            0                       # number of prefetches hitting in cache (Count)
system.cpu.icache.prefetcher.pfHitInMSHR            0                       # number of prefetches hitting in a MSHR (Count)
system.cpu.icache.prefetcher.pfHitInWB              0                       # number of prefetches hit in the Write Buffer (Count)
system.cpu.icache.prefetcher.pfLate                 0                       # number of late prefetches (hitting in cache, MSHR or WB) (Count)
system.cpu.icache.prefetcher.pfIdentified            0                       # number of prefetch candidates identified (Count)
system.cpu.icache.prefetcher.pfBufferHit            0                       # number of redundant prefetches already in prefetch queue (Count)
system.cpu.icache.prefetcher.pfInCache              0                       # number of redundant prefetches already in cache/mshr dropped (Count)
system.cpu.icache.prefetcher.pfRemovedDemand            0                       # number of prefetches dropped due to a demand for the same address (Count)
system.cpu.icache.prefetcher.pfRemovedFull            0                       # number of prefetches dropped due to prefetch queue size (Count)
system.cpu.icache.prefetcher.pfSpanPage             0                       # number of prefetches that crossed the page (Count)
system.cpu.icache.prefetcher.pfUsefulSpanPage            0                       # number of prefetches that is useful and crossed the page (Count)
system.cpu.icache.prefetcher.power_state.pwrStateResidencyTicks::UNDEFINED 375979087000                       # Cumulative time (in ticks) in various power states (Tick)
system.cpu.icache.tags.tagsInUse           463.038941                       # Average ticks per tags in use ((Tick/Count))
system.cpu.icache.tags.totalRefs             96434071                       # Total number of references to valid blocks. (Count)
system.cpu.icache.tags.sampledRefs                609                       # Sample count of references to valid blocks. (Count)
system.cpu.icache.tags.avgRefs           158348.228243                       # Average number of references to valid blocks. ((Count/Count))
system.cpu.icache.tags.warmupTick               88000                       # The tick when the warmup percentage was hit. (Tick)
system.cpu.icache.tags.occupancies::cpu.inst   463.038941                       # Average occupied blocks per tick, per requestor ((Count/Tick))
[...]
system.mem_ctrl.dram.numWrites::writebacks      1123160                       # Number of write requests responded to by this memory (Count)
system.mem_ctrl.dram.numWrites::total         1123160                       # Number of write requests responded to by this memory (Count)
system.mem_ctrl.dram.bwRead::cpu.inst          102814                       # Total read bandwidth from this memory ((Byte/Second))
system.mem_ctrl.dram.bwRead::cpu.data       175843653                       # Total read bandwidth from this memory ((Byte/Second))
system.mem_ctrl.dram.bwRead::cpu.dcache.prefetcher    117673098                       # Total read bandwidth from this memory ((Byte/Second))
system.mem_ctrl.dram.bwRead::l2cache.prefetcher     67061262                       # Total read bandwidth from this memory ((Byte/Second))
system.mem_ctrl.dram.bwRead::total          360680827                       # Total read bandwidth from this memory ((Byte/Second))
system.mem_ctrl.dram.bwInstRead::cpu.inst       102814                       # Instruction read bandwidth from this memory ((Byte/Second))
system.mem_ctrl.dram.bwInstRead::total         102814                       # Instruction read bandwidth from this memory ((Byte/Second))
system.mem_ctrl.dram.bwWrite::writebacks    191186804                       # Write bandwidth from this memory ((Byte/Second))
system.mem_ctrl.dram.bwWrite::total         191186804                       # Write bandwidth from this memory ((Byte/Second))
system.mem_ctrl.dram.bwTotal::writebacks    191186804                       # Total bandwidth to/from this memory ((Byte/Second))
system.mem_ctrl.dram.bwTotal::cpu.inst         102814                       # Total bandwidth to/from this memory ((Byte/Second))
system.mem_ctrl.dram.bwTotal::cpu.data      175843653                       # Total bandwidth to/from this memory ((Byte/Second))
system.mem_ctrl.dram.bwTotal::cpu.dcache.prefetcher    117673098                       # Total bandwidth to/from this memory ((Byte/Second))
system.mem_ctrl.dram.bwTotal::l2cache.prefetcher     67061262                       # Total bandwidth to/from this memory ((Byte/Second))
system.mem_ctrl.dram.bwTotal::total         551867631                       # Total bandwidth to/from this memory ((Byte/Second))
system.mem_ctrl.dram.readBursts               2118882                       # Number of DRAM read bursts (Count)
system.mem_ctrl.dram.writeBursts              1123137                       # Number of DRAM write bursts (Count)
system.mem_ctrl.dram.perBankRdBursts::0        132476                       # Per bank write bursts (Count)
system.mem_ctrl.dram.perBankRdBursts::1        132278                       # Per bank write bursts (Count)
system.mem_ctrl.dram.perBankRdBursts::2        132316                       # Per bank write bursts (Count)
system.mem_ctrl.dram.perBankRdBursts::3        132290                       # Per bank write bursts (Count)
system.mem_ctrl.dram.perBankRdBursts::4        132802                       # Per bank write bursts (Count)
system.mem_ctrl.dram.perBankRdBursts::5        132821                       # Per bank write bursts (Count)
system.mem_ctrl.dram.perBankRdBursts::6        132697                       # Per bank write bursts (Count)
system.mem_ctrl.dram.perBankRdBursts::7        132629                       # Per bank write bursts (Count)
system.mem_ctrl.dram.perBankRdBursts::8        132606                       # Per bank write bursts (Count)
system.mem_ctrl.dram.perBankRdBursts::9        132468                       # Per bank write bursts (Count)
system.mem_ctrl.dram.perBankRdBursts::10       132362                       # Per bank write bursts (Count)
system.mem_ctrl.dram.perBankRdBursts::11       132220                       # Per bank write bursts (Count)
system.mem_ctrl.dram.perBankRdBursts::12       132195                       # Per bank write bursts (Count)
system.mem_ctrl.dram.perBankRdBursts::13       132170                       # Per bank write bursts (Count)
system.mem_ctrl.dram.perBankRdBursts::14       132287                       # Per bank write bursts (Count)
system.mem_ctrl.dram.perBankRdBursts::15       132265                       # Per bank write bursts (Count)
system.mem_ctrl.dram.perBankWrBursts::0         70367                       # Per bank write bursts (Count)
system.mem_ctrl.dram.perBankWrBursts::1         70276                       # Per bank write bursts (Count)
system.mem_ctrl.dram.perBankWrBursts::2         70307                       # Per bank write bursts (Count)
system.mem_ctrl.dram.perBankWrBursts::3         70297                       # Per bank write bursts (Count)
system.mem_ctrl.dram.perBankWrBursts::4         70169                       # Per bank write bursts (Count)
system.mem_ctrl.dram.perBankWrBursts::5         70144                       # Per bank write bursts (Count)
system.mem_ctrl.dram.perBankWrBursts::6         70144                       # Per bank write bursts (Count)
system.mem_ctrl.dram.perBankWrBursts::7         70144                       # Per bank write bursts (Count)
system.mem_ctrl.dram.perBankWrBursts::8         70144                       # Per bank write bursts (Count)
system.mem_ctrl.dram.perBankWrBursts::9         70144                       # Per bank write bursts (Count)
system.mem_ctrl.dram.perBankWrBursts::10        70144                       # Per bank write bursts (Count)
system.mem_ctrl.dram.perBankWrBursts::11        70144                       # Per bank write bursts (Count)
system.mem_ctrl.dram.perBankWrBursts::12        70080                       # Per bank write bursts (Count)
system.mem_ctrl.dram.perBankWrBursts::13        70133                       # Per bank write bursts (Count)
system.mem_ctrl.dram.perBankWrBursts::14        70273                       # Per bank write bursts (Count)
system.mem_ctrl.dram.perBankWrBursts::15        70227                       # Per bank write bursts (Count)
system.mem_ctrl.dram.totQLat              26752241082                       # Total ticks spent queuing (Tick)
system.mem_ctrl.dram.totBusLat            10594410000                       # Total ticks spent in databus transfers (Tick)
system.mem_ctrl.dram.totMemAccLat         66481278582                       # Total ticks spent from burst creation until serviced by the DRAM (Tick)
system.mem_ctrl.dram.avgQLat                 12625.64                       # Average queueing delay per DRAM burst ((Tick/Count))
system.mem_ctrl.dram.avgBusLat                5000.00                       # Average bus latency per DRAM burst ((Tick/Count))
system.mem_ctrl.dram.avgMemAccLat            31375.64                       # Average memory access latency per DRAM burst ((Tick/Count))
system.mem_ctrl.dram.readRowHits              1897420                       # Number of row buffer hits during reads (Count)
system.mem_ctrl.dram.writeRowHits             1018324                       # Number of row buffer hits during writes (Count)
system.mem_ctrl.dram.readRowHitRate             89.55                       # Row buffer hit rate for reads (Ratio)
system.mem_ctrl.dram.writeRowHitRate            90.67                       # Row buffer hit rate for writes (Ratio)
system.mem_ctrl.dram.bytesPerActivate::samples       326274                       # Bytes accessed per row activation (Byte)
system.mem_ctrl.dram.bytesPerActivate::mean   635.935294                       # Bytes accessed per row activation (Byte)
system.mem_ctrl.dram.bytesPerActivate::gmean   494.013653                       # Bytes accessed per row activation (Byte)
system.mem_ctrl.dram.bytesPerActivate::stdev   348.312658                       # Bytes accessed per row activation (Byte)
system.mem_ctrl.dram.bytesPerActivate::0-127        19056      5.84%      5.84% # Bytes accessed per row activation (Byte)
system.mem_ctrl.dram.bytesPerActivate::128-255        42763     13.11%     18.95% # Bytes accessed per row activation (Byte)
system.mem_ctrl.dram.bytesPerActivate::256-383        18155      5.56%     24.51% # Bytes accessed per row activation (Byte)
system.mem_ctrl.dram.bytesPerActivate::384-511        21656      6.64%     31.15% # Bytes accessed per row activation (Byte)
system.mem_ctrl.dram.bytesPerActivate::512-639        71655     21.96%     53.11% # Bytes accessed per row activation (Byte)
system.mem_ctrl.dram.bytesPerActivate::640-767         9645      2.96%     56.07% # Bytes accessed per row activation (Byte)
system.mem_ctrl.dram.bytesPerActivate::768-895        11525      3.53%     59.60% # Bytes accessed per row activation (Byte)
system.mem_ctrl.dram.bytesPerActivate::896-1023        22024      6.75%     66.35% # Bytes accessed per row activation (Byte)
system.mem_ctrl.dram.bytesPerActivate::1024-1151       109795     33.65%    100.00% # Bytes accessed per row activation (Byte)
system.mem_ctrl.dram.bytesPerActivate::total       326274                       # Bytes accessed per row activation (Byte)
system.mem_ctrl.dram.bytesRead              135608448                       # Total bytes read (Byte)
system.mem_ctrl.dram.bytesWritten            71880768                       # Total bytes written (Byte)
system.mem_ctrl.dram.avgRdBW               360.680827                       # Average DRAM read bandwidth in MiBytes/s ((Byte/Second))
system.mem_ctrl.dram.avgWrBW               191.182889                       # Average DRAM write bandwidth in MiBytes/s ((Byte/Second))
system.mem_ctrl.dram.peakBW                  12800.00                       # Theoretical peak bandwidth in MiByte/s ((Byte/Second))
system.mem_ctrl.dram.busUtil                     4.31                       # Data bus utilization in percentage (Ratio)
system.mem_ctrl.dram.busUtilRead                 2.82                       # Data bus utilization in percentage for reads (Ratio)
system.mem_ctrl.dram.busUtilWrite                1.49                       # Data bus utilization in percentage for writes (Ratio)
system.mem_ctrl.dram.pageHitRate                89.94                       # Row buffer hit rate, read and write combined (Ratio)
system.mem_ctrl.dram.power_state.pwrStateResidencyTicks::UNDEFINED 375979087000                       # Cumulative time (in ticks) in various power states (Tick)
system.mem_ctrl.dram.rank0.actEnergy       1165983420                       # Energy for activate commands per rank (pJ) (Joule)
system.mem_ctrl.dram.rank0.preEnergy        619731090                       # Energy for precharge commands per rank (pJ) (Joule)
system.mem_ctrl.dram.rank0.readEnergy      7570606260                       # Energy for read commands per rank (pJ) (Joule)
system.mem_ctrl.dram.rank0.writeEnergy     2932846560                       # Energy for write commands per rank (pJ) (Joule)
system.mem_ctrl.dram.rank0.refreshEnergy 29679121680.000004                       # Energy for refresh commands per rank (pJ) (Joule)
system.mem_ctrl.dram.rank0.actBackEnergy 113922756450                       # Energy for active background per rank (pJ) (Joule)
system.mem_ctrl.dram.rank0.preBackEnergy  48441016800                       # Energy for precharge background per rank (pJ) (Joule)
system.mem_ctrl.dram.rank0.actPowerDownEnergy            0                       # Energy for active power-down per rank (pJ) (Joule)
system.mem_ctrl.dram.rank0.prePowerDownEnergy            0                       # Energy for precharge power-down per rank (pJ) (Joule)
system.mem_ctrl.dram.rank0.selfRefreshEnergy            0                       # Energy for self refresh per rank (pJ) (Joule)
system.mem_ctrl.dram.rank0.totalEnergy   204332062260                       # Total energy per rank (pJ) (Joule)
system.mem_ctrl.dram.rank0.averagePower    543.466563                       # Core power per rank (mW) (Watt)
system.mem_ctrl.dram.rank0.totalIdleTime            0                       # Total Idle time Per DRAM Rank (Tick)
system.mem_ctrl.dram.rank0.pwrStateTime::IDLE 124428511159                       # Time in different power states (Tick)
system.mem_ctrl.dram.rank0.pwrStateTime::REF  12554620000                       # Time in different power states (Tick)
system.mem_ctrl.dram.rank0.pwrStateTime::SREF            0                       # Time in different power states (Tick)
system.mem_ctrl.dram.rank0.pwrStateTime::PRE_PDN            0                       # Time in different power states (Tick)
system.mem_ctrl.dram.rank0.pwrStateTime::ACT 238995955841                       # Time in different power states (Tick)
system.mem_ctrl.dram.rank0.pwrStateTime::ACT_PDN            0                       # Time in different power states (Tick)
system.mem_ctrl.dram.rank1.actEnergy       1163620080                       # Energy for activate commands per rank (pJ) (Joule)
system.mem_ctrl.dram.rank1.preEnergy        618478740                       # Energy for precharge commands per rank (pJ) (Joule)
system.mem_ctrl.dram.rank1.readEnergy      7558211220                       # Energy for read commands per rank (pJ) (Joule)
system.mem_ctrl.dram.rank1.writeEnergy     2929928580                       # Energy for write commands per rank (pJ) (Joule)
system.mem_ctrl.dram.rank1.refreshEnergy 29679121680.000004                       # Energy for refresh commands per rank (pJ) (Joule)
system.mem_ctrl.dram.rank1.actBackEnergy 113564358120                       # Energy for active background per rank (pJ) (Joule)
system.mem_ctrl.dram.rank1.preBackEnergy  48742825920                       # Energy for precharge background per rank (pJ) (Joule)
system.mem_ctrl.dram.rank1.actPowerDownEnergy            0                       # Energy for active power-down per rank (pJ) (Joule)
system.mem_ctrl.dram.rank1.prePowerDownEnergy            0                       # Energy for precharge power-down per rank (pJ) (Joule)
system.mem_ctrl.dram.rank1.selfRefreshEnergy            0                       # Energy for self refresh per rank (pJ) (Joule)
system.mem_ctrl.dram.rank1.totalEnergy   204256544340                       # Total energy per rank (pJ) (Joule)
system.mem_ctrl.dram.rank1.averagePower    543.265707                       # Core power per rank (mW) (Watt)
system.mem_ctrl.dram.rank1.totalIdleTime            0                       # Total Idle time Per DRAM Rank (Tick)
system.mem_ctrl.dram.rank1.pwrStateTime::IDLE 125217622979                       # Time in different power states (Tick)
system.mem_ctrl.dram.rank1.pwrStateTime::REF  12554620000                       # Time in different power states (Tick)
system.mem_ctrl.dram.rank1.pwrStateTime::SREF            0                       # Time in different power states (Tick)
system.mem_ctrl.dram.rank1.pwrStateTime::PRE_PDN            0                       # Time in different power states (Tick)
system.mem_ctrl.dram.rank1.pwrStateTime::ACT 238206844021                       # Time in different power states (Tick)
system.mem_ctrl.dram.rank1.pwrStateTime::ACT_PDN            0                       # Time in different power states (Tick)
system.mem_ctrl.power_state.pwrStateResidencyTicks::UNDEFINED 375979087000                       # Cumulative time (in ticks) in various power states (Tick)
system.membus.transDist::ReadResp             1653115                       # Transaction distribution (Count)
system.membus.transDist::WritebackDirty       1123160                       # Transaction distribution (Count)
system.membus.transDist::CleanEvict            990937                       # Transaction distribution (Count)
system.membus.transDist::ReadExReq             465767                       # Transaction distribution (Count)
system.membus.transDist::ReadExResp            465767                       # Transaction distribution (Count)
system.membus.transDist::ReadSharedReq        1653115                       # Transaction distribution (Count)
system.membus.pktCount_system.l2cache.mem_side_port::system.mem_ctrl.port      6351861                       # Packet count per connected requestor and responder (Count)
system.membus.pktCount_system.l2cache.mem_side_port::total      6351861                       # Packet count per connected requestor and responder (Count)
system.membus.pktCount::total                 6351861                       # Packet count per connected requestor and responder (Count)
system.membus.pktSize_system.l2cache.mem_side_port::system.mem_ctrl.port    207490688                       # Cumulative packet size per connected requestor and responder (Byte)
system.membus.pktSize_system.l2cache.mem_side_port::total    207490688                       # Cumulative packet size per connected requestor and responder (Byte)
system.membus.pktSize::total                207490688                       # Cumulative packet size per connected requestor and responder (Byte)
system.membus.snoops                                0                       # Total snoops (Count)
system.membus.snoopTraffic                          0                       # Total snoop traffic (Byte)
system.membus.snoopFanout::samples            2118882                       # Request fanout histogram (Count)
system.membus.snoopFanout::mean                     0                       # Request fanout histogram (Count)
system.membus.snoopFanout::stdev                    0                       # Request fanout histogram (Count)
system.membus.snoopFanout::underflows               0      0.00%      0.00% # Request fanout histogram (Count)
system.membus.snoopFanout::0                  2118882    100.00%    100.00% # Request fanout histogram (Count)
system.membus.snoopFanout::1                        0      0.00%    100.00% # Request fanout histogram (Count)
system.membus.snoopFanout::overflows                0      0.00%    100.00% # Request fanout histogram (Count)
system.membus.snoopFanout::min_value                0                       # Request fanout histogram (Count)
system.membus.snoopFanout::max_value                0                       # Request fanout histogram (Count)
system.membus.snoopFanout::total              2118882                       # Request fanout histogram (Count)
system.membus.power_state.pwrStateResidencyTicks::UNDEFINED 375979087000                       # Cumulative time (in ticks) in various power states (Tick)
system.membus.reqLayer2.occupancy          8728006565                       # Layer occupancy (ticks) (Tick)
system.membus.reqLayer2.utilization               0.0                       # Layer utilization (Ratio)
system.membus.respLayer0.occupancy        11010849258                       # Layer occupancy (ticks) (Tick)
system.membus.respLayer0.utilization              0.0                       # Layer utilization (Ratio)
system.membus.snoop_filter.totRequests        4232979                       # Total number of requests made to the snoop filter. (Count)
system.membus.snoop_filter.hitSingleRequests      2114097                       # Number of requests hitting in the snoop filter with a single holder of the requested data. (Count)
system.membus.snoop_filter.hitMultiRequests            0                       # Number of requests hitting in the snoop filter with multiple (>1) holders of the requested data. (Count)
system.membus.snoop_filter.totSnoops                0                       # Total number of snoops made to the snoop filter. (Count)
system.membus.snoop_filter.hitSingleSnoops            0                       # Number of snoops hitting in the snoop filter with a single holder of the requested data. (Count)
system.membus.snoop_filter.hitMultiSnoops            0                       # Number of snoops hitting in the snoop filter with multiple (>1) holders of the requested data. (Count)
system.workload.inst.arm                            0                       # number of arm instructions executed (Count)
system.workload.inst.quiesce                        0                       # number of quiesce instructions executed (Count)

---------- End Simulation Statistics   ----------
