
---------- Begin Simulation Statistics ----------
simSeconds                                   0.039370                       # Number of seconds simulated (Second)
simTicks                                  39369609000                       # Number of ticks simulated (Tick)
finalTick                                 39369609000                       # Number of ticks from beginning of simulation (restored from checkpoints and never reset) (Tick)
simFreq                                  1000000000000                       # The number of ticks per simulated second ((Tick/Second))
hostSeconds                                    318.46                       # Real time elapsed on the host (Second)
hostTickRate                                123626805                       # The number of ticks simulated per host second (ticks/s) ((Tick/Second))
hostMemory                                    8523512                       # Number of bytes of host memory used (Byte)
simInsts                                     50000000                       # Number of instructions simulated (Count)
simOps                                       58297584                       # Number of ops (including micro ops) simulated (Count)
hostInstRate                                   157008                       # Simulator instruction rate (inst/s) ((Count/Second))
hostOpRate                                     183064                       # Simulator op (including micro ops) rate (op/s) ((Count/Second))
system.clk_domain.clock                          1000                       # Clock period in ticks (Tick)
system.clk_domain.voltage_domain.voltage            1                       # Voltage in Volts (Volt)
system.cpu.numCycles                         39369621                       # Number of cpu cycles simulated (Cycle)
system.cpu.numWorkItemsStarted                      0                       # Number of work items this cpu started (Count)
system.cpu.numWorkItemsCompleted                    0                       # Number of work items this cpu completed (Count)
system.cpu.instsAdded                        61346480                       # Number of instructions added to the IQ (excludes non-spec) (Count)
system.cpu.nonSpecInstsAdded                      160                       # Number of non-speculative instructions added to the IQ (Count)
system.cpu.instsIssued                       61322303                       # Number of instructions issued (Count)
system.cpu.squashedInstsIssued                    322                       # Number of squashed instructions issued (Count)
system.cpu.squashedInstsExamined              3048928                       # Number of squashed instructions iterated over during squash; mainly for profiling (Count)
system.cpu.squashedOperandsExamined           1396746                       # Number of squashed operands that are examined and possibly removed from graph (Count)
system.cpu.squashedNonSpecRemoved                 136                       # Number of squashed non-spec instructions that were removed (Count)
system.cpu.numIssuedDist::samples            39354584                       # Number of insts issued each cycle (Count)
system.cpu.numIssuedDist::mean               1.558200                       # Number of insts issued each cycle (Count)
system.cpu.numIssuedDist::stdev              1.660637                       # Number of insts issued each cycle (Count)
system.cpu.numIssuedDist::underflows                0      0.00%      0.00% # Number of insts issued each cycle (Count)
system.cpu.numIssuedDist::0                  13856361     35.21%     35.21% # Number of insts issued each cycle (Count)
system.cpu.numIssuedDist::1                   8760515     22.26%     57.47% # Number of insts issued each cycle (Count)
system.cpu.numIssuedDist::2                   7774099     19.75%     77.22% # Number of insts issued each cycle (Count)
system.cpu.numIssuedDist::3                   3388412      8.61%     85.83% # Number of insts issued each cycle (Count)
system.cpu.numIssuedDist::4                   2308699      5.87%     91.70% # Number of insts issued each cycle (Count)
system.cpu.numIssuedDist::5                   2408664      6.12%     97.82% # Number of insts issued each cycle (Count)
system.cpu.numIssuedDist::6                    528934      1.34%     99.16% # Number of insts issued each cycle (Count)
system.cpu.numIssuedDist::7                    234566      0.60%     99.76% # Number of insts issued each cycle (Count)
system.cpu.numIssuedDist::8                     94334      0.24%    100.00% # Number of insts issued each cycle (Count)
system.cpu.numIssuedDist::overflows                 0      0.00%    100.00% # Number of insts issued each cycle (Count)
system.cpu.numIssuedDist::min_value                 0                       # Number of insts issued each cycle (Count)
system.cpu.numIssuedDist::max_value                 8                       # Number of insts issued each cycle (Count)
system.cpu.numIssuedDist::total              39354584                       # Number of insts issued each cycle (Count)
system.cpu.statFuBusy::No_OpClass                   0      0.00%      0.00% # attempts to use FU when none available (Count)
system.cpu.statFuBusy::IntAlu                  294592     15.97%     15.97% # attempts to use FU when none available (Count)
system.cpu.statFuBusy::IntMult                      0      0.00%     15.97% # attempts to use FU when none available (Count)
system.cpu.statFuBusy::IntDiv                       0      0.00%     15.97% # attempts to use FU when none available (Count)
system.cpu.statFuBusy::FloatAdd                     0      0.00%     15.97% # attempts to use FU when none available (Count)
system.cpu.statFuBusy::FloatCmp                     0      0.00%     15.97% # attempts to use FU when none available (Count)
system.cpu.statFuBusy::FloatCvt                     0      0.00%     15.97% # attempts to use FU when none available (Count)
system.cpu.statFuBusy::FloatMult                    0      0.00%     15.97% # attempts to use FU when none available (Count)
system.cpu.statFuBusy::FloatMultAcc                 0      0.00%     15.97% # attempts to use FU when none available (Count)
system.cpu.statFuBusy::FloatDiv                     0      0.00%     15.97% # attempts to use FU when none available (Count)
system.cpu.statFuBusy::FloatMisc                    0      0.00%     15.97% # attempts to use FU when none available (Count)
system.cpu.statFuBusy::FloatSqrt                    0      0.00%     15.97% # attempts to use FU when none available (Count)
system.cpu.statFuBusy::SimdAdd                      0      0.00%     15.97% # attempts to use FU when none available (Count)
system.cpu.statFuBusy::SimdAddAcc                   0      0.00%     15.97% # attempts to use FU when none available (Count)
system.cpu.statFuBusy::SimdAlu                     26      0.00%     15.97% # attempts to use FU when none available (Count)
system.cpu.statFuBusy::SimdCmp                      0      0.00%     15.97% # attempts to use FU when none available (Count)
system.cpu.statFuBusy::SimdCvt                      2      0.00%     15.97% # attempts to use FU when none available (Count)
system.cpu.statFuBusy::SimdMisc                     0      0.00%     15.97% # attempts to use FU when none available (Count)
system.cpu.statFuBusy::SimdMult                     0      0.00%     15.97% # attempts to use FU when none available (Count)
system.cpu.statFuBusy::SimdMultAcc                  0      0.00%     15.97% # attempts to use FU when none available (Count)
system.cpu.statFuBusy::SimdShift                    0      0.00%     15.97% # attempts to use FU when none available (Count)
system.cpu.statFuBusy::SimdShiftAcc                 0      0.00%     15.97% # attempts to use FU when none available (Count)
system.cpu.statFuBusy::SimdDiv                      0      0.00%     15.97% # attempts to use FU when none available (Count)
system.cpu.statFuBusy::SimdSqrt                     0      0.00%     15.97% # attempts to use FU when none available (Count)
system.cpu.statFuBusy::SimdFloatAdd                 0      0.00%     15.97% # attempts to use FU when none available (Count)
system.cpu.statFuBusy::SimdFloatAlu                 0      0.00%     15.97% # attempts to use FU when none available (Count)
system.cpu.statFuBusy::SimdFloatCmp                 0      0.00%     15.97% # attempts to use FU when none available (Count)
system.cpu.statFuBusy::SimdFloatCvt                 0      0.00%     15.97% # attempts to use FU when none available (Count)
system.cpu.statFuBusy::SimdFloatDiv                 0      0.00%     15.97% # attempts to use FU when none available (Count)
system.cpu.statFuBusy::SimdFloatMisc                0      0.00%     15.97% # attempts to use FU when none available (Count)
system.cpu.statFuBusy::SimdFloatMult                0      0.00%     15.97% # attempts to use FU when none available (Count)
system.cpu.statFuBusy::SimdFloatMultAcc             0      0.00%     15.97% # attempts to use FU when none available (Count)
system.cpu.statFuBusy::SimdFloatSqrt                0      0.00%     15.97% # attempts to use FU when none available (Count)
system.cpu.statFuBusy::SimdReduceAdd                0      0.00%     15.97% # attempts to use FU when none available (Count)
system.cpu.statFuBusy::SimdReduceAlu                0      0.00%     15.97% # attempts to use FU when none available (Count)
system.cpu.statFuBusy::SimdReduceCmp                0      0.00%     15.97% # attempts to use FU when none available (Count)
system.cpu.statFuBusy::SimdFloatReduceAdd            0      0.00%     15.97% # attempts to use FU when none available (Count)
system.cpu.statFuBusy::SimdFloatReduceCmp            0      0.00%     15.97% # attempts to use FU when none available (Count)
system.cpu.statFuBusy::SimdAes                      0      0.00%     15.97% # attempts to use FU when none available (Count)
system.cpu.statFuBusy::SimdAesMix                   0      0.00%     15.97% # attempts to use FU when none available (Count)
system.cpu.statFuBusy::SimdSha1Hash                 0      0.00%     15.97% # attempts to use FU when none available (Count)
system.cpu.statFuBusy::SimdSha1Hash2                0      0.00%     15.97% # attempts to use FU when none available (Count)
system.cpu.statFuBusy::SimdSha256Hash               0      0.00%     15.97% # attempts to use FU when none available (Count)
system.cpu.statFuBusy::SimdSha256Hash2              0      0.00%     15.97% # attempts to use FU when none available (Count)
system.cpu.statFuBusy::SimdShaSigma2                0      0.00%     15.97% # attempts to use FU when none available (Count)
system.cpu.statFuBusy::SimdShaSigma3                0      0.00%     15.97% # attempts to use FU when none available (Count)
system.cpu.statFuBusy::SimdPredAlu                  0      0.00%     15.97% # attempts to use FU when none available (Count)
system.cpu.statFuBusy::MemRead                1550129     84.01%     99.98% # attempts to use FU when none available (Count)
system.cpu.statFuBusy::MemWrite                   302      0.02%     99.99% # attempts to use FU when none available (Count)
system.cpu.statFuBusy::FloatMemRead                11      0.00%    100.00% # attempts to use FU when none available (Count)
system.cpu.statFuBusy::FloatMemWrite               91      0.00%    100.00% # attempts to use FU when none available (Count)
system.cpu.statFuBusy::IprAccess                    0      0.00%    100.00% # attempts to use FU when none available (Count)
system.cpu.statFuBusy::InstPrefetch                 0      0.00%    100.00% # attempts to use FU when none available (Count)
system.cpu.statIssuedInstType_0::No_OpClass          294      0.00%      0.00% # Number of instructions issued per FU type, per thread (Count)
system.cpu.statIssuedInstType_0::IntAlu      40344448     65.79%     65.79% # Number of instructions issued per FU type, per thread (Count)
system.cpu.statIssuedInstType_0::IntMult           30      0.00%     65.79% # Number of instructions issued per FU type, per thread (Count)
system.cpu.statIssuedInstType_0::IntDiv            80      0.00%     65.79% # Number of instructions issued per FU type, per thread (Count)
system.cpu.statIssuedInstType_0::FloatAdd           32      0.00%     65.79% # Number of instructions issued per FU type, per thread (Count)
system.cpu.statIssuedInstType_0::FloatCmp            0      0.00%     65.79% # Number of instructions issued per FU type, per thread (Count)
system.cpu.statIssuedInstType_0::FloatCvt            0      0.00%     65.79% # Number of instructions issued per FU type, per thread (Count)
system.cpu.statIssuedInstType_0::FloatMult            0      0.00%     65.79% # Number of instructions issued per FU type, per thread (Count)
system.cpu.statIssuedInstType_0::FloatMultAcc            0      0.00%     65.79% # Number of instructions issued per FU type, per thread (Count)
system.cpu.statIssuedInstType_0::FloatDiv            0      0.00%     65.79% # Number of instructions issued per FU type, per thread (Count)
system.cpu.statIssuedInstType_0::FloatMisc            0      0.00%     65.79% # Number of instructions issued per FU type, per thread (Count)
system.cpu.statIssuedInstType_0::FloatSqrt            0      0.00%     65.79% # Number of instructions issued per FU type, per thread (Count)
system.cpu.statIssuedInstType_0::SimdAdd            0      0.00%     65.79% # Number of instructions issued per FU type, per thread (Count)
system.cpu.statIssuedInstType_0::SimdAddAcc            0      0.00%     65.79% # Number of instructions issued per FU type, per thread (Count)
system.cpu.statIssuedInstType_0::SimdAlu          195      0.00%     65.79% # Number of instructions issued per FU type, per thread (Count)
system.cpu.statIssuedInstType_0::SimdCmp            0      0.00%     65.79% # Number of instructions issued per FU type, per thread (Count)
system.cpu.statIssuedInstType_0::SimdCvt          170      0.00%     65.79% # Number of instructions issued per FU type, per thread (Count)
system.cpu.statIssuedInstType_0::SimdMisc          241      0.00%     65.79% # Number of instructions issued per FU type, per thread (Count)
system.cpu.statIssuedInstType_0::SimdMult            0      0.00%     65.79% # Number of instructions issued per FU type, per thread (Count)
system.cpu.statIssuedInstType_0::SimdMultAcc            0      0.00%     65.79% # Number of instructions issued per FU type, per thread (Count)
system.cpu.statIssuedInstType_0::SimdShift            0      0.00%     65.79% # Number of instructions issued per FU type, per thread (Count)
system.cpu.statIssuedInstType_0::SimdShiftAcc            0      0.00%     65.79% # Number of instructions issued per FU type, per thread (Count)
system.cpu.statIssuedInstType_0::SimdDiv            0      0.00%     65.79% # Number of instructions issued per FU type, per thread (Count)
system.cpu.statIssuedInstType_0::SimdSqrt            0      0.00%     65.79% # Number of instructions issued per FU type, per thread (Count)
system.cpu.statIssuedInstType_0::SimdFloatAdd            0      0.00%     65.79% # Number of instructions issued per FU type, per thread (Count)
system.cpu.statIssuedInstType_0::SimdFloatAlu            0      0.00%     65.79% # Number of instructions issued per FU type, per thread (Count)
system.cpu.statIssuedInstType_0::SimdFloatCmp            0      0.00%     65.79% # Number of instructions issued per FU type, per thread (Count)
system.cpu.statIssuedInstType_0::SimdFloatCvt            2      0.00%     65.79% # Number of instructions issued per FU type, per thread (Count)
system.cpu.statIssuedInstType_0::SimdFloatDiv            0      0.00%     65.79% # Number of instructions issued per FU type, per thread (Count)
system.cpu.statIssuedInstType_0::SimdFloatMisc            0      0.00%     65.79% # Number of instructions issued per FU type, per thread (Count)
system.cpu.statIssuedInstType_0::SimdFloatMult            0      0.00%     65.79% # Number of instructions issued per FU type, per thread (Count)
system.cpu.statIssuedInstType_0::SimdFloatMultAcc            0      0.00%     65.79% # Number of instructions issued per FU type, per thread (Count)
system.cpu.statIssuedInstType_0::SimdFloatSqrt            0      0.00%     65.79% # Number of instructions issued per FU type, per thread (Count)
system.cpu.statIssuedInstType_0::SimdReduceAdd            0      0.00%     65.79% # Number of instructions issued per FU type, per thread (Count)
system.cpu.statIssuedInstType_0::SimdReduceAlu            0      0.00%     65.79% # Number of instructions issued per FU type, per thread (Count)
system.cpu.statIssuedInstType_0::SimdReduceCmp            0      0.00%     65.79% # Number of instructions issued per FU type, per thread (Count)
system.cpu.statIssuedInstType_0::SimdFloatReduceAdd            0      0.00%     65.79% # Number of instructions issued per FU type, per thread (Count)
system.cpu.statIssuedInstType_0::SimdFloatReduceCmp            0      0.00%     65.79% # Number of instructions issued per FU type, per thread (Count)
system.cpu.statIssuedInstType_0::SimdAes            0      0.00%     65.79% # Number of instructions issued per FU type, per thread (Count)
system.cpu.statIssuedInstType_0::SimdAesMix            0      0.00%     65.79% # Number of instructions issued per FU type, per thread (Count)
system.cpu.statIssuedInstType_0::SimdSha1Hash            0      0.00%     65.79% # Number of instructions issued per FU type, per thread (Count)
system.cpu.statIssuedInstType_0::SimdSha1Hash2            0      0.00%     65.79% # Number of instructions issued per FU type, per thread (Count)
system.cpu.statIssuedInstType_0::SimdSha256Hash            0      0.00%     65.79% # Number of instructions issued per FU type, per thread (Count)
system.cpu.statIssuedInstType_0::SimdSha256Hash2            0      0.00%     65.79% # Number of instructions issued per FU type, per thread (Count)
system.cpu.statIssuedInstType_0::SimdShaSigma2            0      0.00%     65.79% # Number of instructions issued per FU type, per thread (Count)
system.cpu.statIssuedInstType_0::SimdShaSigma3            0      0.00%     65.79% # Number of instructions issued per FU type, per thread (Count)
system.cpu.statIssuedInstType_0::SimdPredAlu            0      0.00%     65.79% # Number of instructions issued per FU type, per thread (Count)
system.cpu.statIssuedInstType_0::MemRead     13874228     22.63%     88.42% # Number of instructions issued per FU type, per thread (Count)
system.cpu.statIssuedInstType_0::MemWrite      7102267     11.58%    100.00% # Number of instructions issued per FU type, per thread (Count)
system.cpu.statIssuedInstType_0::FloatMemRead          122      0.00%    100.00% # Number of instructions issued per FU type, per thread (Count)
system.cpu.statIssuedInstType_0::FloatMemWrite          194      0.00%    100.00% # Number of instructions issued per FU type, per thread (Count)
system.cpu.statIssuedInstType_0::IprAccess            0      0.00%    100.00% # Number of instructions issued per FU type, per thread (Count)
system.cpu.statIssuedInstType_0::InstPrefetch            0      0.00%    100.00% # Number of instructions issued per FU type, per thread (Count)
system.cpu.statIssuedInstType_0::total       61322303                       # Number of instructions issued per FU type, per thread (Count)
system.cpu.issueRate                         1.557605                       # Inst issue rate ((Count/Cycle))
system.cpu.fuBusy                             1845153                       # FU busy when requested (Count)
system.cpu.fuBusyRate                        0.030089                       # FU busy rate (busy events/executed inst) ((Count/Count))
system.cpu.intInstQueueReads                163842464                       # Number of integer instruction queue reads (Count)
system.cpu.intInstQueueWrites                64394390                       # Number of integer instruction queue writes (Count)
system.cpu.intInstQueueWakeupAccesses        60997968                       # Number of integer instruction queue wakeup accesses (Count)
system.cpu.fpInstQueueReads                      2197                       # Number of floating instruction queue reads (Count)
system.cpu.fpInstQueueWrites                     1691                       # Number of floating instruction queue writes (Count)
system.cpu.fpInstQueueWakeupAccesses              999                       # Number of floating instruction queue wakeup accesses (Count)
system.cpu.vecInstQueueReads                        0                       # Number of vector instruction queue reads (Count)
system.cpu.vecInstQueueWrites                       0                       # Number of vector instruction queue writes (Count)
system.cpu.vecInstQueueWakeupAccesses               0                       # Number of vector instruction queue wakeup accesses (Count)
system.cpu.intAluAccesses                    63166004                       # Number of integer alu accesses (Count)
system.cpu.fpAluAccesses                         1158                       # Number of floating point alu accesses (Count)
system.cpu.vecAluAccesses                           0                       # Number of vector alu accesses (Count)
system.cpu.numInsts                          61318290                       # Number of executed instructions (Count)
system.cpu.numLoadInsts                      13872647                       # Number of load instructions executed (Count)
system.cpu.numSquashedInsts                      4009                       # Number of squashed instructions skipped in execute (Count)
system.cpu.numSwp                                   0                       # Number of swp insts executed (Count)
system.cpu.numNop                                   0                       # Number of nop insts executed (Count)
system.cpu.numRefs                           20974529                       # Number of memory reference insts executed (Count)
system.cpu.numBranches                         329248                       # Number of branches executed (Count)
system.cpu.numStoreInsts                      7101882                       # Number of stores executed (Count)
system.cpu.numRate                           1.557503                       # Inst execution rate ((Count/Cycle))
system.cpu.timesIdled                             324                       # Number of times that the entire CPU went into an idle state and unscheduled itself (Count)
system.cpu.idleCycles                           15037                       # Total number of cycles that the CPU has spent unscheduled due to idling (Cycle)
system.cpu.committedInsts                    50000000                       # Number of Instructions Simulated (Count)
system.cpu.committedOps                      58297584                       # Number of Ops (including micro ops) Simulated (Count)
system.cpu.cpi                               0.787392                       # CPI: Cycles Per Instruction ((Cycle/Count))
system.cpu.totalCpi                          0.787392                       # CPI: Total CPI of All Threads ((Cycle/Count))
system.cpu.ipc                               1.270015                       # IPC: Instructions Per Cycle ((Count/Cycle))
system.cpu.totalIpc                          1.270015                       # IPC: Total IPC of All Threads ((Count/Cycle))
system.cpu.intRegfileReads                   74539653                       # Number of integer regfile reads (Count)
system.cpu.intRegfileWrites                  53557732                       # Number of integer regfile writes (Count)
system.cpu.fpRegfileReads                        1609                       # Number of floating regfile reads (Count)
system.cpu.fpRegfileWrites                        703                       # Number of floating regfile writes (Count)
system.cpu.ccRegfileReads                     1644529                       # number of cc regfile reads (Count)
system.cpu.ccRegfileWrites                   26448950                       # number of cc regfile writes (Count)
system.cpu.miscRegfileReads                  21634952                       # number of misc regfile reads (Count)
system.cpu.MemDepUnit__0.insertedLoads       13876033                       # Number of loads inserted to the mem dependence unit. (Count)
system.cpu.MemDepUnit__0.insertedStores       7107154                       # Number of stores inserted to the mem dependence unit. (Count)
system.cpu.MemDepUnit__0.conflictingLoads      4041962                       # Number of conflicting loads. (Count)
system.cpu.MemDepUnit__0.conflictingStores       319259                       # Number of conflicting stores. (Count)
system.cpu.MemDepUnit__1.insertedLoads              0                       # Number of loads inserted to the mem dependence unit. (Count)
system.cpu.MemDepUnit__1.insertedStores             0                       # Number of stores inserted to the mem dependence unit. (Count)
system.cpu.MemDepUnit__1.conflictingLoads            0                       # Number of conflicting loads. (Count)
system.cpu.MemDepUnit__1.conflictingStores            0                       # Number of conflicting stores. (Count)
system.cpu.MemDepUnit__2.insertedLoads              0                       # Number of loads inserted to the mem dependence unit. (Count)
system.cpu.MemDepUnit__2.insertedStores             0                       # Number of stores inserted to the mem dependence unit. (Count)
system.cpu.MemDepUnit__2.conflictingLoads            0                       # Number of conflicting loads. (Count)
system.cpu.MemDepUnit__2.conflictingStores            0                       # Number of conflicting stores. (Count)
system.cpu.MemDepUnit__3.insertedLoads              0                       # Number of loads inserted to the mem dependence unit. (Count)
system.cpu.MemDepUnit__3.insertedStores             0                       # Number of stores inserted to the mem dependence unit. (Count)
system.cpu.MemDepUnit__3.conflictingLoads            0                       # Number of conflicting loads. (Count)
system.cpu.MemDepUnit__3.conflictingStores            0                       # Number of conflicting stores. (Count)
system.cpu.branchPred.lookups                  335586                       # Number of BP lookups (Count)
system.cpu.branchPred.condPredicted            333237                       # Number of conditional branches predicted (Count)
system.cpu.branchPred.condIncorrect              1029                       # Number of conditional branches incorrect (Count)
system.cpu.branchPred.BTBLookups               329548                       # Number of BTB lookups (Count)
system.cpu.branchPred.BTBHits                  328456                       # Number of BTB hits (Count)
system.cpu.branchPred.BTBHitRatio            0.996686                       # BTB Hit Ratio (Ratio)
system.cpu.branchPred.RASUsed                     773                       # Number of times the RAS was used to get a target. (Count)
system.cpu.branchPred.RASIncorrect                  2                       # Number of incorrect RAS predictions. (Count)
system.cpu.branchPred.indirectLookups             383                       # Number of indirect predictor lookups. (Count)
system.cpu.branchPred.indirectHits                179                       # Number of indirect target hits. (Count)
system.cpu.branchPred.indirectMisses              204                       # Number of indirect misses. (Count)
system.cpu.branchPred.indirectMispredicted           82                       # Number of mispredicted indirect branches. (Count)
system.cpu.commit.commitSquashedInsts         3048002                       # The number of squashed insts skipped by commit (Count)
system.cpu.commit.commitNonSpecStalls              24                       # The number of times commit has been forced to stall to communicate backwards (Count)
system.cpu.commit.branchMispredicts               762                       # The number of times a branch was mispredicted (Count)
system.cpu.commit.numCommittedDist::samples     38969148                       # Number of insts commited each cycle (Count)
system.cpu.commit.numCommittedDist::mean     1.495993                       # Number of insts commited each cycle (Count)
system.cpu.commit.numCommittedDist::stdev     2.817200                       # Number of insts commited each cycle (Count)
system.cpu.commit.numCommittedDist::underflows            0      0.00%      0.00% # Number of insts commited each cycle (Count)
system.cpu.commit.numCommittedDist::0        25018998     64.20%     64.20% # Number of insts commited each cycle (Count)
system.cpu.commit.numCommittedDist::1         6210579     15.94%     80.14% # Number of insts commited each cycle (Count)
system.cpu.commit.numCommittedDist::2         1024556      2.63%     82.77% # Number of insts commited each cycle (Count)
system.cpu.commit.numCommittedDist::3          308758      0.79%     83.56% # Number of insts commited each cycle (Count)
system.cpu.commit.numCommittedDist::4          303180      0.78%     84.34% # Number of insts commited each cycle (Count)
system.cpu.commit.numCommittedDist::5          307559      0.79%     85.13% # Number of insts commited each cycle (Count)
system.cpu.commit.numCommittedDist::6             448      0.00%     85.13% # Number of insts commited each cycle (Count)
system.cpu.commit.numCommittedDist::7            2144      0.01%     85.13% # Number of insts commited each cycle (Count)
system.cpu.commit.numCommittedDist::8         5792926     14.87%    100.00% # Number of insts commited each cycle (Count)
system.cpu.commit.numCommittedDist::overflows            0      0.00%    100.00% # Number of insts commited each cycle (Count)
system.cpu.commit.numCommittedDist::min_value            0                       # Number of insts commited each cycle (Count)
system.cpu.commit.numCommittedDist::max_value            8                       # Number of insts commited each cycle (Count)
system.cpu.commit.numCommittedDist::total     38969148                       # Number of insts commited each cycle (Count)
system.cpu.commit.instsCommitted             50000000                       # Number of instructions committed (Count)
system.cpu.commit.opsCommitted               58297584                       # Number of ops (including micro ops) committed (Count)
system.cpu.commit.memRefs                    19938471                       # Number of memory references committed (Count)
system.cpu.commit.loads                      13189621                       # Number of loads committed (Count)
system.cpu.commit.amos                              0                       # Number of atomic instructions committed (Count)
system.cpu.commit.membars                          16                       # Number of memory barriers committed (Count)
system.cpu.commit.branches                     311038                       # Number of branches committed (Count)
system.cpu.commit.vectorInstructions                0                       # Number of committed Vector instructions. (Count)
system.cpu.commit.floating                        887                       # Number of committed floating point instructions. (Count)
system.cpu.commit.integer                    58296897                       # Number of committed integer instructions. (Count)
system.cpu.commit.functionCalls                   330                       # Number of function calls committed. (Count)
system.cpu.commit.committedInstType_0::No_OpClass           45      0.00%      0.00% # Class of committed instruction (Count)
system.cpu.commit.committedInstType_0::IntAlu     38358423     65.80%     65.80% # Class of committed instruction (Count)
system.cpu.commit.committedInstType_0::IntMult           26      0.00%     65.80% # Class of committed instruction (Count)
system.cpu.commit.committedInstType_0::IntDiv           70      0.00%     65.80% # Class of committed instruction (Count)
system.cpu.commit.committedInstType_0::FloatAdd           21      0.00%     65.80% # Class of committed instruction (Count)
system.cpu.commit.committedInstType_0::FloatCmp            0      0.00%     65.80% # Class of committed instruction (Count)
system.cpu.commit.committedInstType_0::FloatCvt            0      0.00%     65.80% # Class of committed instruction (Count)
system.cpu.commit.committedInstType_0::FloatMult            0      0.00%     65.80% # Class of committed instruction (Count)
system.cpu.commit.committedInstType_0::FloatMultAcc            0      0.00%     65.80% # Class of committed instruction (Count)
system.cpu.commit.committedInstType_0::FloatDiv            0      0.00%     65.80% # Class of committed instruction (Count)
system.cpu.commit.committedInstType_0::FloatMisc            0      0.00%     65.80% # Class of committed instruction (Count)
system.cpu.commit.committedInstType_0::FloatSqrt            0      0.00%     65.80% # Class of committed instruction (Count)
system.cpu.commit.committedInstType_0::SimdAdd            0      0.00%     65.80% # Class of committed instruction (Count)
system.cpu.commit.committedInstType_0::SimdAddAcc            0      0.00%     65.80% # Class of committed instruction (Count)
system.cpu.commit.committedInstType_0::SimdAlu          150      0.00%     65.80% # Class of committed instruction (Count)
system.cpu.commit.committedInstType_0::SimdCmp            0      0.00%     65.80% # Class of committed instruction (Count)
system.cpu.commit.committedInstType_0::SimdCvt          158      0.00%     65.80% # Class of committed instruction (Count)
system.cpu.commit.committedInstType_0::SimdMisc          220      0.00%     65.80% # Class of committed instruction (Count)
system.cpu.commit.committedInstType_0::SimdMult            0      0.00%     65.80% # Class of committed instruction (Count)
system.cpu.commit.committedInstType_0::SimdMultAcc            0      0.00%     65.80% # Class of committed instruction (Count)
system.cpu.commit.committedInstType_0::SimdShift            0      0.00%     65.80% # Class of committed instruction (Count)
system.cpu.commit.committedInstType_0::SimdShiftAcc            0      0.00%     65.80% # Class of committed instruction (Count)
system.cpu.commit.committedInstType_0::SimdDiv            0      0.00%     65.80% # Class of committed instruction (Count)
system.cpu.commit.committedInstType_0::SimdSqrt            0      0.00%     65.80% # Class of committed instruction (Count)
system.cpu.commit.committedInstType_0::SimdFloatAdd            0      0.00%     65.80% # Class of committed instruction (Count)
system.cpu.commit.committedInstType_0::SimdFloatAlu            0      0.00%     65.80% # Class of committed instruction (Count)
system.cpu.commit.committedInstType_0::SimdFloatCmp            0      0.00%     65.80% # Class of committed instruction (Count)
system.cpu.commit.committedInstType_0::SimdFloatCvt            0      0.00%     65.80% # Class of committed instruction (Count)
system.cpu.commit.committedInstType_0::SimdFloatDiv            0      0.00%     65.80% # Class of committed instruction (Count)
system.cpu.commit.committedInstType_0::SimdFloatMisc            0      0.00%     65.80% # Class of committed instruction (Count)
system.cpu.commit.committedInstType_0::SimdFloatMult            0      0.00%     65.80% # Class of committed instruction (Count)
system.cpu.commit.committedInstType_0::SimdFloatMultAcc            0      0.00%     65.80% # Class of committed instruction (Count)
system.cpu.commit.committedInstType_0::SimdFloatSqrt            0      0.00%     65.80% # Class of committed instruction (Count)
system.cpu.commit.committedInstType_0::SimdReduceAdd            0      0.00%     65.80% # Class of committed instruction (Count)
system.cpu.commit.committedInstType_0::SimdReduceAlu            0      0.00%     65.80% # Class of committed instruction (Count)
system.cpu.commit.committedInstType_0::SimdReduceCmp            0      0.00%     65.80% # Class of committed instruction (Count)
system.cpu.commit.committedInstType_0::SimdFloatReduceAdd            0      0.00%     65.80% # Class of committed instruction (Count)
system.cpu.commit.committedInstType_0::SimdFloatReduceCmp            0      0.00%     65.80% # Class of committed instruction (Count)
system.cpu.commit.committedInstType_0::SimdAes            0      0.00%     65.80% # Class of committed instruction (Count)
system.cpu.commit.committedInstType_0::SimdAesMix            0      0.00%     65.80% # Class of committed instruction (Count)
system.cpu.commit.committedInstType_0::SimdSha1Hash            0      0.00%     65.80% # Class of committed instruction (Count)
system.cpu.commit.committedInstType_0::SimdSha1Hash2            0      0.00%     65.80% # Class of committed instruction (Count)
system.cpu.commit.committedInstType_0::SimdSha256Hash            0      0.00%     65.80% # Class of committed instruction (Count)
system.cpu.commit.committedInstType_0::SimdSha256Hash2            0      0.00%     65.80% # Class of committed instruction (Count)
system.cpu.commit.committedInstType_0::SimdShaSigma2            0      0.00%     65.80% # Class of committed instruction (Count)
system.cpu.commit.committedInstType_0::SimdShaSigma3            0      0.00%     65.80% # Class of committed instruction (Count)
system.cpu.commit.committedInstType_0::SimdPredAlu            0      0.00%     65.80% # Class of committed instruction (Count)
system.cpu.commit.committedInstType_0::MemRead     13189522     22.62%     88.42% # Class of committed instruction (Count)
system.cpu.commit.committedInstType_0::MemWrite      6748679     11.58%    100.00% # Class of committed instruction (Count)
system.cpu.commit.committedInstType_0::FloatMemRead           99      0.00%    100.00% # Class of committed instruction (Count)
system.cpu.commit.committedInstType_0::FloatMemWrite          171      0.00%    100.00% # Class of committed instruction (Count)
system.cpu.commit.committedInstType_0::IprAccess            0      0.00%    100.00% # Class of committed instruction (Count)
system.cpu.commit.committedInstType_0::InstPrefetch            0      0.00%    100.00% # Class of committed instruction (Count)
system.cpu.commit.committedInstType_0::total     58297584                       # Class of committed instruction (Count)
system.cpu.commit.commitEligibleSamples       5792926                       # number cycles where commit BW limit reached (Cycle)
system.cpu.dcache.demandHits::cpu.data       13049298                       # number of demand (read+write) hits (Count)
system.cpu.dcache.demandHits::total          13049298                       # number of demand (read+write) hits (Count)
system.cpu.dcache.overallHits::cpu.data      13049298                       # number of overall hits (Count)
system.cpu.dcache.overallHits::total         13049298                       # number of overall hits (Count)
system.cpu.dcache.demandMisses::cpu.data       303005                       # number of demand (read+write) misses (Count)
system.cpu.dcache.demandMisses::total          303005                       # number of demand (read+write) misses (Count)
system.cpu.dcache.overallMisses::cpu.data       303005                       # number of overall misses (Count)
system.cpu.dcache.overallMisses::total         303005                       # number of overall misses (Count)
system.cpu.dcache.demandMissLatency::cpu.data  24369003000                       # number of demand (read+write) miss ticks (Tick)
system.cpu.dcache.demandMissLatency::total  24369003000                       # number of demand (read+write) miss ticks (Tick)
system.cpu.dcache.overallMissLatency::cpu.data  24369003000                       # number of overall miss ticks (Tick)
system.cpu.dcache.overallMissLatency::total  24369003000                       # number of overall miss ticks (Tick)
system.cpu.dcache.demandAccesses::cpu.data     13352303                       # number of demand (read+write) accesses (Count)
system.cpu.dcache.demandAccesses::total      13352303                       # number of demand (read+write) accesses (Count)
system.cpu.dcache.overallAccesses::cpu.data     13352303                       # number of overall (read+write) accesses (Count)
system.cpu.dcache.overallAccesses::total     13352303                       # number of overall (read+write) accesses (Count)
system.cpu.dcache.demandMissRate::cpu.data     0.022693                       # miss rate for demand accesses (Ratio)
system.cpu.dcache.demandMissRate::total      0.022693                       # miss rate for demand accesses (Ratio)
system.cpu.dcache.overallMissRate::cpu.data     0.022693                       # miss rate for overall accesses (Ratio)
system.cpu.dcache.overallMissRate::total     0.022693                       # miss rate for overall accesses (Ratio)
system.cpu.dcache.demandAvgMissLatency::cpu.data 80424.425340                       # average overall miss latency in ticks ((Tick/Count))
system.cpu.dcache.demandAvgMissLatency::total 80424.425340                       # average overall miss latency in ticks ((Tick/Count))
system.cpu.dcache.overallAvgMissLatency::cpu.data 80424.425340                       # average overall miss latency ((Tick/Count))
system.cpu.dcache.overallAvgMissLatency::total 80424.425340                       # average overall miss latency ((Tick/Count))
system.cpu.dcache.blockedCycles::no_mshrs           91                       # number of cycles access was blocked (Cycle)
system.cpu.dcache.blockedCycles::no_targets            0                       # number of cycles access was blocked (Cycle)
system.cpu.dcache.blockedCauses::no_mshrs            5                       # number of times access was blocked (Count)
system.cpu.dcache.blockedCauses::no_targets            0                       # number of times access was blocked (Count)
system.cpu.dcache.avgBlocked::no_mshrs      18.200000                       # average number of cycles each access was blocked ((Cycle/Count))
system.cpu.dcache.avgBlocked::no_targets          nan                       # average number of cycles each access was blocked ((Cycle/Count))
system.cpu.dcache.writebacks::writebacks       765719                       # number of writebacks (Count)
system.cpu.dcache.writebacks::total            765719                       # number of writebacks (Count)
system.cpu.dcache.demandMshrHits::cpu.data        18780                       # number of demand (read+write) MSHR hits (Count)
system.cpu.dcache.demandMshrHits::total         18780                       # number of demand (read+write) MSHR hits (Count)
system.cpu.dcache.overallMshrHits::cpu.data        18780                       # number of overall MSHR hits (Count)
system.cpu.dcache.overallMshrHits::total        18780                       # number of overall MSHR hits (Count)
system.cpu.dcache.demandMshrMisses::cpu.data       284225                       # number of demand (read+write) MSHR misses (Count)
system.cpu.dcache.demandMshrMisses::total       284225                       # number of demand (read+write) MSHR misses (Count)
system.cpu.dcache.overallMshrMisses::cpu.data       284225                       # number of overall MSHR misses (Count)
system.cpu.dcache.overallMshrMisses::cpu.dcache.prefetcher       482599                       # number of overall MSHR misses (Count)
system.cpu.dcache.overallMshrMisses::total       766824                       # number of overall MSHR misses (Count)
system.cpu.dcache.demandMshrMissLatency::cpu.data  22554458000                       # number of demand (read+write) MSHR miss ticks (Tick)
system.cpu.dcache.demandMshrMissLatency::total  22554458000                       # number of demand (read+write) MSHR miss ticks (Tick)
system.cpu.dcache.overallMshrMissLatency::cpu.data  22554458000                       # number of overall MSHR miss ticks (Tick)
system.cpu.dcache.overallMshrMissLatency::cpu.dcache.prefetcher  42646114832                       # number of overall MSHR miss ticks (Tick)
system.cpu.dcache.overallMshrMissLatency::total  65200572832                       # number of overall MSHR miss ticks (Tick)
system.cpu.dcache.demandMshrMissRate::cpu.data     0.021287                       # mshr miss ratio for demand accesses (Ratio)
system.cpu.dcache.demandMshrMissRate::total     0.021287                       # mshr miss ratio for demand accesses (Ratio)
system.cpu.dcache.overallMshrMissRate::cpu.data     0.021287                       # mshr miss ratio for overall accesses (Ratio)
system.cpu.dcache.overallMshrMissRate::cpu.dcache.prefetcher          inf                       # mshr miss ratio for overall accesses (Ratio)
system.cpu.dcache.overallMshrMissRate::total     0.057430                       # mshr miss ratio for overall accesses (Ratio)
system.cpu.dcache.demandAvgMshrMissLatency::cpu.data 79354.236960                       # average overall mshr miss latency ((Tick/Count))
system.cpu.dcache.demandAvgMshrMissLatency::total 79354.236960                       # average overall mshr miss latency ((Tick/Count))
system.cpu.dcache.overallAvgMshrMissLatency::cpu.data 79354.236960                       # average overall mshr miss latency ((Tick/Count))
system.cpu.dcache.overallAvgMshrMissLatency::cpu.dcache.prefetcher 88367.598839                       # average overall mshr miss latency ((Tick/Count))
system.cpu.dcache.overallAvgMshrMissLatency::total 85026.776460                       # average overall mshr miss latency ((Tick/Count))
system.cpu.dcache.replacements                 765798                       # number of replacements (Count)
system.cpu.dcache.HardPFReq.mshrMisses::cpu.dcache.prefetcher       482599                       # number of HardPFReq MSHR misses (Count)
system.cpu.dcache.HardPFReq.mshrMisses::total       482599                       # number of HardPFReq MSHR misses (Count)
system.cpu.dcache.HardPFReq.mshrMissLatency::cpu.dcache.prefetcher  42646114832                       # number of HardPFReq MSHR miss ticks (Tick)
system.cpu.dcache.HardPFReq.mshrMissLatency::total  42646114832                       # number of HardPFReq MSHR miss ticks (Tick)
system.cpu.dcache.HardPFReq.mshrMissRate::cpu.dcache.prefetcher          inf                       # mshr miss rate for HardPFReq accesses (Ratio)
system.cpu.dcache.HardPFReq.mshrMissRate::total          inf                       # mshr miss rate for HardPFReq accesses (Ratio)
system.cpu.dcache.HardPFReq.avgMshrMissLatency::cpu.dcache.prefetcher 88367.598839                       # average HardPFReq mshr miss latency ((Tick/Count))
system.cpu.dcache.HardPFReq.avgMshrMissLatency::total 88367.598839                       # average HardPFReq mshr miss latency ((Tick/Count))
system.cpu.dcache.LockedRMWReadReq.hits::cpu.data            8                       # number of LockedRMWReadReq hits (Count)
system.cpu.dcache.LockedRMWReadReq.hits::total            8                       # number of LockedRMWReadReq hits (Count)
system.cpu.dcache.LockedRMWReadReq.accesses::cpu.data            8                       # number of LockedRMWReadReq accesses(hits+misses) (Count)
system.cpu.dcache.LockedRMWReadReq.accesses::total            8                       # number of LockedRMWReadReq accesses(hits+misses) (Count)
system.cpu.dcache.LockedRMWReadReq.mshrMissLatency::cpu.data       113000                       # number of LockedRMWReadReq MSHR miss ticks (Tick)
system.cpu.dcache.LockedRMWReadReq.mshrMissLatency::total       113000                       # number of LockedRMWReadReq MSHR miss ticks (Tick)
system.cpu.dcache.LockedRMWReadReq.avgMshrMissLatency::cpu.data          inf                       # average LockedRMWReadReq mshr miss latency ((Tick/Count))
system.cpu.dcache.LockedRMWReadReq.avgMshrMissLatency::total          inf                       # average LockedRMWReadReq mshr miss latency ((Tick/Count))
system.cpu.dcache.LockedRMWWriteReq.hits::cpu.data            8                       # number of LockedRMWWriteReq hits (Count)
system.cpu.dcache.LockedRMWWriteReq.hits::total            8                       # number of LockedRMWWriteReq hits (Count)
system.cpu.dcache.LockedRMWWriteReq.accesses::cpu.data            8                       # number of LockedRMWWriteReq accesses(hits+misses) (Count)
system.cpu.dcache.LockedRMWWriteReq.accesses::total            8                       # number of LockedRMWWriteReq accesses(hits+misses) (Count)
system.cpu.dcache.ReadReq.hits::cpu.data      6603280                       # number of ReadReq hits (Count)
system.cpu.dcache.ReadReq.hits::total         6603280                       # number of ReadReq hits (Count)
system.cpu.dcache.ReadReq.misses::cpu.data          195                       # number of ReadReq misses (Count)
system.cpu.dcache.ReadReq.misses::total           195                       # number of ReadReq misses (Count)
system.cpu.dcache.ReadReq.missLatency::cpu.data     15624000                       # number of ReadReq miss ticks (Tick)
system.cpu.dcache.ReadReq.missLatency::total     15624000                       # number of ReadReq miss ticks (Tick)
system.cpu.dcache.ReadReq.accesses::cpu.data      6603475                       # number of ReadReq accesses(hits+misses) (Count)
system.cpu.dcache.ReadReq.accesses::total      6603475                       # number of ReadReq accesses(hits+misses) (Count)
system.cpu.dcache.ReadReq.missRate::cpu.data     0.000030                       # miss rate for ReadReq accesses (Ratio)
system.cpu.dcache.ReadReq.missRate::total     0.000030                       # miss rate for ReadReq accesses (Ratio)
system.cpu.dcache.ReadReq.avgMissLatency::cpu.data 80123.076923                       # average ReadReq miss latency ((Tick/Count))
system.cpu.dcache.ReadReq.avgMissLatency::total 80123.076923                       # average ReadReq miss latency ((Tick/Count))
system.cpu.dcache.ReadReq.mshrHits::cpu.data           91                       # number of ReadReq MSHR hits (Count)
system.cpu.dcache.ReadReq.mshrHits::total           91                       # number of ReadReq MSHR hits (Count)
system.cpu.dcache.ReadReq.mshrMisses::cpu.data          104                       # number of ReadReq MSHR misses (Count)
system.cpu.dcache.ReadReq.mshrMisses::total          104                       # number of ReadReq MSHR misses (Count)
system.cpu.dcache.ReadReq.mshrMissLatency::cpu.data      9611000                       # number of ReadReq MSHR miss ticks (Tick)
system.cpu.dcache.ReadReq.mshrMissLatency::total      9611000                       # number of ReadReq MSHR miss ticks (Tick)
system.cpu.dcache.ReadReq.mshrMissRate::cpu.data     0.000016                       # mshr miss rate for ReadReq accesses (Ratio)
system.cpu.dcache.ReadReq.mshrMissRate::total     0.000016                       # mshr miss rate for ReadReq accesses (Ratio)
system.cpu.dcache.ReadReq.avgMshrMissLatency::cpu.data 92413.461538                       # average ReadReq mshr miss latency ((Tick/Count))
system.cpu.dcache.ReadReq.avgMshrMissLatency::total 92413.461538                       # average ReadReq mshr miss latency ((Tick/Count))
system.cpu.dcache.WriteReq.hits::cpu.data      6446018                       # number of WriteReq hits (Count)
system.cpu.dcache.WriteReq.hits::total        6446018                       # number of WriteReq hits (Count)
system.cpu.dcache.WriteReq.misses::cpu.data       302810                       # number of WriteReq misses (Count)
system.cpu.dcache.WriteReq.misses::total       302810                       # number of WriteReq misses (Count)
system.cpu.dcache.WriteReq.missLatency::cpu.data  24353379000                       # number of WriteReq miss ticks (Tick)
system.cpu.dcache.WriteReq.missLatency::total  24353379000                       # number of WriteReq miss ticks (Tick)
system.cpu.dcache.WriteReq.accesses::cpu.data      6748828                       # number of WriteReq accesses(hits+misses) (Count)
system.cpu.dcache.WriteReq.accesses::total      6748828                       # number of WriteReq accesses(hits+misses) (Count)
system.cpu.dcache.WriteReq.missRate::cpu.data     0.044869                       # miss rate for WriteReq accesses (Ratio)
system.cpu.dcache.WriteReq.missRate::total     0.044869                       # miss rate for WriteReq accesses (Ratio)
system.cpu.dcache.WriteReq.avgMissLatency::cpu.data 80424.619398                       # average WriteReq miss latency ((Tick/Count))
system.cpu.dcache.WriteReq.avgMissLatency::total 80424.619398                       # average WriteReq miss latency ((Tick/Count))
system.cpu.dcache.WriteReq.mshrHits::cpu.data        18689                       # number of WriteReq MSHR hits (Count)
system.cpu.dcache.WriteReq.mshrHits::total        18689                       # number of WriteReq MSHR hits (Count)
system.cpu.dcache.WriteReq.mshrMisses::cpu.data       284121                       # number of WriteReq MSHR misses (Count)
system.cpu.dcache.WriteReq.mshrMisses::total       284121                       # number of WriteReq MSHR misses (Count)
system.cpu.dcache.WriteReq.mshrMissLatency::cpu.data  22544847000                       # number of WriteReq MSHR miss ticks (Tick)
system.cpu.dcache.WriteReq.mshrMissLatency::total  22544847000                       # number of WriteReq MSHR miss ticks (Tick)
system.cpu.dcache.WriteReq.mshrMissRate::cpu.data     0.042099                       # mshr miss rate for WriteReq accesses (Ratio)
system.cpu.dcache.WriteReq.mshrMissRate::total     0.042099                       # mshr miss rate for WriteReq accesses (Ratio)
system.cpu.dcache.WriteReq.avgMshrMissLatency::cpu.data 79349.456746                       # average WriteReq mshr miss latency ((Tick/Count))
system.cpu.dcache.WriteReq.avgMshrMissLatency::total 79349.456746                       # average WriteReq mshr miss latency ((Tick/Count))
system.cpu.dcache.power_state.pwrStateResidencyTicks::UNDEFINED  39369609000                       # Cumulative time (in ticks) in various power states (Tick)
system.cpu.dcache.prefetcher.demandMshrMisses       284225                       # demands not covered by prefetchs (Count)
system.cpu.dcache.prefetcher.pfIssued          599582                       # number of hwpf issued (Count)
system.cpu.dcache.prefetcher.pfUnused               2                       # number of HardPF blocks evicted w/o reference (Count)
system.cpu.dcache.prefetcher.pfUseful          463907                       # number of useful prefetch (Count)
system.cpu.dcache.prefetcher.pfUsefulButMiss            0                       # number of hit on prefetch but cache block is not in an usable state (Count)
system.cpu.dcache.prefetcher.accuracy        0.773717                       # accuracy of the prefetcher (Count)
system.cpu.dcache.prefetcher.coverage        0.620087                       # coverage brought by this prefetcher (Count)
system.cpu.dcache.prefetcher.pfHitInCache       116225                       # number of prefetches hitting in cache (Count)
system.cpu.dcache.prefetcher.pfHitInMSHR          758                       # number of prefetches hitting in a MSHR (Count)
system.cpu.dcache.prefetcher.pfHitInWB              0                       # number of prefetches hit in the Write Buffer (Count)
system.cpu.dcache.prefetcher.pfLate            116983                       # number of late prefetches (hitting in cache, MSHR or WB) (Count)
system.cpu.dcache.prefetcher.pfIdentified       688140                       # number of prefetch candidates identified (Count)
system.cpu.dcache.prefetcher.pfBufferHit        73298                       # number of redundant prefetches already in prefetch queue (Count)
system.cpu.dcache.prefetcher.pfInCache              0                       # number of redundant prefetches already in cache/mshr dropped (Count)
system.cpu.dcache.prefetcher.pfRemovedDemand        11267                       # number of prefetches dropped due to a demand for the same address (Count)
system.cpu.dcache.prefetcher.pfRemovedFull            0                       # number of prefetches dropped due to prefetch queue size (Count)
system.cpu.dcache.prefetcher.pfSpanPage        475700                       # number of prefetches that crossed the page (Count)
system.cpu.dcache.prefetcher.pfUsefulSpanPage            0                       # number of prefetches that is useful and crossed the page (Count)
system.cpu.dcache.prefetcher.power_state.pwrStateResidencyTicks::UNDEFINED  39369609000                       # Cumulative time (in ticks) in various power states (Tick)
system.cpu.dcache.tags.tagsInUse          1022.325354                       # Average ticks per tags in use ((Tick/Count))
system.cpu.dcache.tags.totalRefs             13816136                       # Total number of references to valid blocks. (Count)
system.cpu.dcache.tags.sampledRefs             766822                       # Sample count of references to valid blocks. (Count)
system.cpu.dcache.tags.avgRefs              18.017396                       # Average number of references to valid blocks. ((Count/Count))
system.cpu.dcache.tags.warmupTick              263000                       # The tick when the warmup percentage was hit. (Tick)
system.cpu.dcache.tags.occupancies::cpu.data   378.100038                       # Average occupied blocks per tick, per requestor ((Count/Tick))
system.cpu.dcache.tags.occupancies::cpu.dcache.prefetcher   644.225316                       # Average occupied blocks per tick, per requestor ((Count/Tick))
system.cpu.dcache.tags.avgOccs::cpu.data     0.369238                       # Average percentage of cache occupancy ((Ratio/Tick))
system.cpu.dcache.tags.avgOccs::cpu.dcache.prefetcher     0.629126                       # Average percentage of cache occupancy ((Ratio/Tick))
system.cpu.dcache.tags.avgOccs::total        0.998365                       # Average percentage of cache occupancy ((Ratio/Tick))
system.cpu.dcache.tags.occupanciesTaskId::1022          637                       # Occupied blocks per task id (Count)
system.cpu.dcache.tags.occupanciesTaskId::1024          387                       # Occupied blocks per task id (Count)
system.cpu.dcache.tags.ageTaskId_1022::0          125                       # Occupied blocks per task id, per block age (Count)
system.cpu.dcache.tags.ageTaskId_1022::1          512                       # Occupied blocks per task id, per block age (Count)
system.cpu.dcache.tags.ageTaskId_1024::0           69                       # Occupied blocks per task id, per block age (Count)
system.cpu.dcache.tags.ageTaskId_1024::1          317                       # Occupied blocks per task id, per block age (Count)
system.cpu.dcache.tags.ageTaskId_1024::4            1                       # Occupied blocks per task id, per block age (Count)
system.cpu.dcache.tags.ratioOccsTaskId::1022     0.622070                       # Ratio of occupied blocks and all blocks, per task id (Ratio)
system.cpu.dcache.tags.ratioOccsTaskId::1024     0.377930                       # Ratio of occupied blocks and all blocks, per task id (Ratio)
system.cpu.dcache.tags.tagAccesses           54176098                       # Number of tag accesses (Count)
system.cpu.dcache.tags.dataAccesses          54176098                       # Number of data accesses (Count)
system.cpu.dcache.tags.power_state.pwrStateResidencyTicks::UNDEFINED  39369609000                       # Cumulative time (in ticks) in various power states (Tick)
system.cpu.decode.idleCycles                  2028735                       # Number of cycles decode is idle (Cycle)
system.cpu.decode.blockedCycles              29509848                       # Number of cycles decode is blocked (Cycle)
system.cpu.decode.runCycles                   2606514                       # Number of cycles decode is running (Cycle)
system.cpu.decode.unblockCycles               5196216                       # Number of cycles decode is unblocking (Cycle)
system.cpu.decode.squashCycles                  13271                       # Number of cycles decode is squashing (Cycle)
system.cpu.decode.branchResolved               326129                       # Number of times decode resolved a branch (Count)
system.cpu.decode.branchMispred                   301                       # Number of times decode detected a branch misprediction (Count)
system.cpu.decode.decodedInsts               61444843                       # Number of instructions handled by decode (Count)
system.cpu.decode.squashedInsts                  1288                       # Number of squashed instructions handled by decode (Count)
system.cpu.fetch.icacheStallCycles            3957288                       # Number of cycles fetch is stalled on an Icache miss (Cycle)
system.cpu.fetch.insts                       53149519                       # Number of instructions fetch has processed (Count)
system.cpu.fetch.branches                      335586                       # Number of branches that fetch encountered (Count)
system.cpu.fetch.predictedBranches             329408                       # Number of branches that fetch has predicted taken (Count)
system.cpu.fetch.cycles                      35383512                       # Number of cycles fetch has run and was not squashing or blocked (Cycle)
system.cpu.fetch.squashCycles                   27128                       # Number of cycles fetch has spent squashing (Cycle)
system.cpu.fetch.miscStallCycles                   34                       # Number of cycles fetch has spent waiting on interrupts, or bad addresses, or out of MSHRs (Cycle)
system.cpu.fetch.pendingTrapStallCycles           186                       # Number of stall cycles due to pending traps (Cycle)
system.cpu.fetch.cacheLines                   3927974                       # Number of cache lines fetched (Count)
system.cpu.fetch.icacheSquashes                   607                       # Number of outstanding Icache misses that were squashed (Count)
system.cpu.fetch.nisnDist::samples           39354584                       # Number of instructions fetched each cycle (Total) (Count)
system.cpu.fetch.nisnDist::mean              1.575182                       # Number of instructions fetched each cycle (Total) (Count)
system.cpu.fetch.nisnDist::stdev             2.915641                       # Number of instructions fetched each cycle (Total) (Count)
system.cpu.fetch.nisnDist::underflows               0      0.00%      0.00% # Number of instructions fetched each cycle (Total) (Count)
system.cpu.fetch.nisnDist::0                 28627628     72.74%     72.74% # Number of instructions fetched each cycle (Total) (Count)
system.cpu.fetch.nisnDist::1                  1295592      3.29%     76.03% # Number of instructions fetched each cycle (Total) (Count)
system.cpu.fetch.nisnDist::2                   522214      1.33%     77.36% # Number of instructions fetched each cycle (Total) (Count)
system.cpu.fetch.nisnDist::3                   908272      2.31%     79.67% # Number of instructions fetched each cycle (Total) (Count)
system.cpu.fetch.nisnDist::4                   752401      1.91%     81.58% # Number of instructions fetched each cycle (Total) (Count)
system.cpu.fetch.nisnDist::5                   651431      1.66%     83.24% # Number of instructions fetched each cycle (Total) (Count)
system.cpu.fetch.nisnDist::6                   932089      2.37%     85.61% # Number of instructions fetched each cycle (Total) (Count)
system.cpu.fetch.nisnDist::7                   253152      0.64%     86.25% # Number of instructions fetched each cycle (Total) (Count)
system.cpu.fetch.nisnDist::8                  5411805     13.75%    100.00% # Number of instructions fetched each cycle (Total) (Count)
system.cpu.fetch.nisnDist::overflows                0      0.00%    100.00% # Number of instructions fetched each cycle (Total) (Count)
system.cpu.fetch.nisnDist::min_value                0                       # Number of instructions fetched each cycle (Total) (Count)
system.cpu.fetch.nisnDist::max_value                8                       # Number of instructions fetched each cycle (Total) (Count)
system.cpu.fetch.nisnDist::total             39354584                       # Number of instructions fetched each cycle (Total) (Count)
system.cpu.fetch.branchRate                  0.008524                       # Number of branch fetches per cycle (Ratio)
system.cpu.fetch.rate                        1.350013                       # Number of inst fetches per cycle ((Count/Cycle))
system.cpu.icache.demandHits::cpu.inst        3927162                       # number of demand (read+write) hits (Count)
system.cpu.icache.demandHits::total           3927162                       # number of demand (read+write) hits (Count)
system.cpu.icache.overallHits::cpu.inst       3927162                       # number of overall hits (Count)
system.cpu.icache.overallHits::total          3927162                       # number of overall hits (Count)
system.cpu.icache.demandMisses::cpu.inst          812                       # number of demand (read+write) misses (Count)
system.cpu.icache.demandMisses::total             812                       # number of demand (read+write) misses (Count)
system.cpu.icache.overallMisses::cpu.inst          812                       # number of overall misses (Count)
system.cpu.icache.overallMisses::total            812                       # number of overall misses (Count)
system.cpu.icache.demandMissLatency::cpu.inst     61808000                       # number of demand (read+write) miss ticks (Tick)
system.cpu.icache.demandMissLatency::total     61808000                       # number of demand (read+write) miss ticks (Tick)
system.cpu.icache.overallMissLatency::cpu.inst     61808000                       # number of overall miss ticks (Tick)
system.cpu.icache.overallMissLatency::total     61808000                       # number of overall miss ticks (Tick)
system.cpu.icache.demandAccesses::cpu.inst      3927974                       # number of demand (read+write) accesses (Count)
system.cpu.icache.demandAccesses::total       3927974                       # number of demand (read+write) accesses (Count)
system.cpu.icache.overallAccesses::cpu.inst      3927974                       # number of overall (read+write) accesses (Count)
system.cpu.icache.overallAccesses::total      3927974                       # number of overall (read+write) accesses (Count)
system.cpu.icache.demandMissRate::cpu.inst     0.000207                       # miss rate for demand accesses (Ratio)
system.cpu.icache.demandMissRate::total      0.000207                       # miss rate for demand accesses (Ratio)
system.cpu.icache.overallMissRate::cpu.inst     0.000207                       # miss rate for overall accesses (Ratio)
system.cpu.icache.overallMissRate::total     0.000207                       # miss rate for overall accesses (Ratio)
system.cpu.icache.demandAvgMissLatency::cpu.inst 76118.226601                       # average overall miss latency in ticks ((Tick/Count))
system.cpu.icache.demandAvgMissLatency::total 76118.226601                       # average overall miss latency in ticks ((Tick/Count))
system.cpu.icache.overallAvgMissLatency::cpu.inst 76118.226601                       # average overall miss latency ((Tick/Count))
system.cpu.icache.overallAvgMissLatency::total 76118.226601                       # average overall miss latency ((Tick/Count))
system.cpu.icache.blockedCycles::no_mshrs          156                       # number of cycles access was blocked (Cycle)
system.cpu.icache.blockedCycles::no_targets            0                       # number of cycles access was blocked (Cycle)
system.cpu.icache.blockedCauses::no_mshrs            4                       # number of times access was blocked (Count)
system.cpu.icache.blockedCauses::no_targets            0                       # number of times access was blocked (Count)
system.cpu.icache.avgBlocked::no_mshrs             39                       # average number of cycles each access was blocked ((Cycle/Count))
system.cpu.icache.avgBlocked::no_targets          nan                       # average number of cycles each access was blocked ((Cycle/Count))
system.cpu.icache.demandMshrHits::cpu.inst          197                       # number of demand (read+write) MSHR hits (Count)
system.cpu.icache.demandMshrHits::total           197                       # number of demand (read+write) MSHR hits (Count)
system.cpu.icache.overallMshrHits::cpu.inst          197                       # number of overall MSHR hits (Count)
system.cpu.icache.overallMshrHits::total          197                       # number of overall MSHR hits (Count)
system.cpu.icache.demandMshrMisses::cpu.inst          615                       # number of demand (read+write) MSHR misses (Count)
system.cpu.icache.demandMshrMisses::total          615                       # number of demand (read+write) MSHR misses (Count)
system.cpu.icache.overallMshrMisses::cpu.inst          615                       # number of overall MSHR misses (Count)
system.cpu.icache.overallMshrMisses::total          615                       # number of overall MSHR misses (Count)
system.cpu.icache.demandMshrMissLatency::cpu.inst     50443000                       # number of demand (read+write) MSHR miss ticks (Tick)
system.cpu.icache.demandMshrMissLatency::total     50443000                       # number of demand (read+write) MSHR miss ticks (Tick)
system.cpu.icache.overallMshrMissLatency::cpu.inst     50443000                       # number of overall MSHR miss ticks (Tick)
system.cpu.icache.overallMshrMissLatency::total     50443000                       # number of overall MSHR miss ticks (Tick)
system.cpu.icache.demandMshrMissRate::cpu.inst     0.000157                       # mshr miss ratio for demand accesses (Ratio)
system.cpu.icache.demandMshrMissRate::total     0.000157                       # mshr miss ratio for demand accesses (Ratio)
system.cpu.icache.overallMshrMissRate::cpu.inst     0.000157                       # mshr miss ratio for overall accesses (Ratio)
system.cpu.icache.overallMshrMissRate::total     0.000157                       # mshr miss ratio for overall accesses (Ratio)
system.cpu.icache.demandAvgMshrMissLatency::cpu.inst 82021.138211                       # average overall mshr miss latency ((Tick/Count))
system.cpu.icache.demandAvgMshrMissLatency::total 82021.138211                       # average overall mshr miss latency ((Tick/Count))
system.cpu.icache.overallAvgMshrMissLatency::cpu.inst 82021.138211                       # average overall mshr miss latency ((Tick/Count))
system.cpu.icache.overallAvgMshrMissLatency::total 82021.138211                       # average overall mshr miss latency ((Tick/Count))
system.cpu.icache.replacements                     24                       # number of replacements (Count)
system.cpu.icache.ReadReq.hits::cpu.inst      3927162                       # number of ReadReq hits (Count)
system.cpu.icache.ReadReq.hits::total         3927162                       # number of ReadReq hits (Count)
system.cpu.icache.ReadReq.misses::cpu.inst          812                       # number of ReadReq misses (Count)
system.cpu.icache.ReadReq.misses::total           812                       # number of ReadReq misses (Count)
system.cpu.icache.ReadReq.missLatency::cpu.inst     61808000                       # number of ReadReq miss ticks (Tick)
system.cpu.icache.ReadReq.missLatency::total     61808000                       # number of ReadReq miss ticks (Tick)
system.cpu.icache.ReadReq.accesses::cpu.inst      3927974                       # number of ReadReq accesses(hits+misses) (Count)
system.cpu.icache.ReadReq.accesses::total      3927974                       # number of ReadReq accesses(hits+misses) (Count)
system.cpu.icache.ReadReq.missRate::cpu.inst     0.000207                       # miss rate for ReadReq accesses (Ratio)
system.cpu.icache.ReadReq.missRate::total     0.000207                       # miss rate for ReadReq accesses (Ratio)
system.cpu.icache.ReadReq.avgMissLatency::cpu.inst 76118.226601                       # average ReadReq miss latency ((Tick/Count))
system.cpu.icache.ReadReq.avgMissLatency::total 76118.226601                       # average ReadReq miss latency ((Tick/Count))
system.cpu.icache.ReadReq.mshrHits::cpu.inst          197                       # number of ReadReq MSHR hits (Count)
system.cpu.icache.ReadReq.mshrHits::total          197                       # number of ReadReq MSHR hits (Count)
system.cpu.icache.ReadReq.mshrMisses::cpu.inst          615                       # number of ReadReq MSHR misses (Count)
system.cpu.icache.ReadReq.mshrMisses::total          615                       # number of ReadReq MSHR misses (Count)
system.cpu.icache.ReadReq.mshrMissLatency::cpu.inst     50443000                       # number of ReadReq MSHR miss ticks (Tick)
system.cpu.icache.ReadReq.mshrMissLatency::total     50443000                       # number of ReadReq MSHR miss ticks (Tick)
system.cpu.icache.ReadReq.mshrMissRate::cpu.inst     0.000157                       # mshr miss rate for ReadReq accesses (Ratio)
system.cpu.icache.ReadReq.mshrMissRate::total     0.000157                       # mshr miss rate for ReadReq accesses (Ratio)
system.cpu.icache.ReadReq.avgMshrMissLatency::cpu.inst 82021.138211                       # average ReadReq mshr miss latency ((Tick/Count))
system.cpu.icache.ReadReq.avgMshrMissLatency::total 82021.138211                       # average ReadReq mshr miss latency ((Tick/Count))
system.cpu.icache.power_state.pwrStateResidencyTicks::UNDEFINED  39369609000                       # Cumulative time (in ticks) in various power states (Tick)
system.cpu.icache.prefetcher.demandMshrMisses          615                       # demands not covered by prefetchs (Count)
system.cpu.icache.prefetcher.pfIssued               0                       # number of hwpf issued (Count)
system.cpu.icache.prefetcher.pfUseful               0                       # number of useful prefetch (Count)
system.cpu.icache.prefetcher.pfUsefulButMiss            0                       # number of hit on prefetch but cache block is not in an usable state (Count)
system.cpu.icache.prefetcher.accuracy             nan                       # accuracy of the prefetcher (Count)
system.cpu.icache.prefetcher.coverage               0                       # coverage brought by this prefetcher (Count)
system.cpu.icache.prefetcher.pfHitInCache            0                       # number of prefetches hitting in cache (Count)
system.cpu.icache.prefetcher.pfHitInMSHR            0                       # number of prefetches hitting in a MSHR (Count)
system.cpu.icache.prefetcher.pfHitInWB              0                       # number of prefetches hit in the Write Buffer (Count)
system.cpu.icache.prefetcher.pfLate                 0                       # number of late prefetches (hitting in cache, MSHR or WB) (Count)
system.cpu.icache.prefetcher.pfIdentified            0                       # number of prefetch candidates identified (Count)
system.cpu.icache.prefetcher.pfBufferHit            0                       # number of redundant prefetches already in prefetch queue (Count)
system.cpu.icache.prefetcher.pfInCache              0                       # number of redundant prefetches already in cache/mshr dropped (Count)
system.cpu.icache.prefetcher.pfRemovedDemand            0                       # number of prefetches dropped due to a demand for the same address (Count)
system.cpu.icache.prefetcher.pfRemovedFull            0                       # number of prefetches dropped due to prefetch queue size (Count)
system.cpu.icache.prefetcher.pfSpanPage             0                       # number of prefetches that crossed the page (Count)
system.cpu.icache.prefetcher.pfUsefulSpanPage            0                       # number of prefetches that is useful and crossed the page (Count)
system.cpu.icache.prefetcher.power_state.pwrStateResidencyTicks::UNDEFINED  39369609000                       # Cumulative time (in ticks) in various power states (Tick)
system.cpu.icache.tags.tagsInUse           590.640025                       # Average ticks per tags in use ((Tick/Count))
system.cpu.icache.tags.totalRefs              3927777                       # Total number of references to valid blocks. (Count)
system.cpu.icache.tags.sampledRefs                615                       # Sample count of references to valid blocks. (Count)
system.cpu.icache.tags.avgRefs            6386.629268                       # Average number of references to valid blocks. ((Count/Count))
system.cpu.icache.tags.warmupTick               88000                       # The tick when the warmup percentage was hit. (Tick)
system.cpu.icache.tags.occupancies::cpu.inst   590.640025                       # Average occupied blocks per tick, per requestor ((Count/Tick))
system.cpu.icache.tags.avgOccs::cpu.inst     0.576797                       # Average percentage of cache occupancy ((Ratio/Tick))
system.cpu.icache.tags.avgOccs::total        0.576797                       # Average percentage of cache occupancy ((Ratio/Tick))
system.cpu.icache.tags.occupanciesTaskId::1024          591                       # Occupied blocks per task id (Count)
system.cpu.icache.tags.ageTaskId_1024::4          591                       # Occupied blocks per task id, per block age (Count)
system.cpu.icache.tags.ratioOccsTaskId::1024     0.577148                       # Ratio of occupied blocks and all blocks, per task id (Ratio)
system.cpu.icache.tags.tagAccesses           15712511                       # Number of tag accesses (Count)
system.cpu.icache.tags.dataAccesses          15712511                       # Number of data accesses (Count)
system.cpu.icache.tags.power_state.pwrStateResidencyTicks::UNDEFINED  39369609000                       # Cumulative time (in ticks) in various power states (Tick)
system.cpu.iew.idleCycles                           0                       # Number of cycles IEW is idle (Cycle)
system.cpu.iew.squashCycles                     13271                       # Number of cycles IEW is squashing (Cycle)
system.cpu.iew.blockCycles                    1072051                       # Number of cycles IEW is blocking (Cycle)
system.cpu.iew.unblockCycles                   464970                       # Number of cycles IEW is unblocking (Cycle)
system.cpu.iew.dispatchedInsts               61346640                       # Number of instructions dispatched to IQ (Count)
system.cpu.iew.dispSquashedInsts                    8                       # Number of squashed instructions skipped by dispatch (Count)
system.cpu.iew.dispLoadInsts                 13876033                       # Number of dispatched load instructions (Count)
system.cpu.iew.dispStoreInsts                 7107154                       # Number of dispatched store instructions (Count)
system.cpu.iew.dispNonSpecInsts                    55                       # Number of dispatched non-speculative instructions (Count)
system.cpu.iew.iqFullEvents                    206269                       # Number of times the IQ has become full, causing a stall (Count)
system.cpu.iew.lsqFullEvents                    81452                       # Number of times the LSQ has become full, causing a stall (Count)
system.cpu.iew.memOrderViolationEvents            514                       # Number of memory order violations (Count)
[...]
system.mem_ctrl.dram.numWrites::writebacks       762646                       # Number of write requests responded to by this memory (Count)
system.mem_ctrl.dram.numWrites::total          762646                       # Number of write requests responded to by this memory (Count)
system.mem_ctrl.dram.bwRead::cpu.inst          991628                       # Total read bandwidth from this memory ((Byte/Second))
system.mem_ctrl.dram.bwRead::cpu.data       361757212                       # Total read bandwidth from this memory ((Byte/Second))
system.mem_ctrl.dram.bwRead::cpu.dcache.prefetcher    665325378                       # Total read bandwidth from this memory ((Byte/Second))
system.mem_ctrl.dram.bwRead::l2cache.prefetcher    219476500                       # Total read bandwidth from this memory ((Byte/Second))
system.mem_ctrl.dram.bwRead::total         1247550719                       # Total read bandwidth from this memory ((Byte/Second))
system.mem_ctrl.dram.bwInstRead::cpu.inst       991628                       # Instruction read bandwidth from this memory ((Byte/Second))
system.mem_ctrl.dram.bwInstRead::total         991628                       # Instruction read bandwidth from this memory ((Byte/Second))
system.mem_ctrl.dram.bwWrite::writebacks   1239772130                       # Write bandwidth from this memory ((Byte/Second))
system.mem_ctrl.dram.bwWrite::total        1239772130                       # Write bandwidth from this memory ((Byte/Second))
system.mem_ctrl.dram.bwTotal::writebacks   1239772130                       # Total bandwidth to/from this memory ((Byte/Second))
system.mem_ctrl.dram.bwTotal::cpu.inst         991628                       # Total bandwidth to/from this memory ((Byte/Second))
system.mem_ctrl.dram.bwTotal::cpu.data      361757212                       # Total bandwidth to/from this memory ((Byte/Second))
system.mem_ctrl.dram.bwTotal::cpu.dcache.prefetcher    665325378                       # Total bandwidth to/from this memory ((Byte/Second))
system.mem_ctrl.dram.bwTotal::l2cache.prefetcher    219476500                       # Total bandwidth to/from this memory ((Byte/Second))
system.mem_ctrl.dram.bwTotal::total        2487322848                       # Total bandwidth to/from this memory ((Byte/Second))
system.mem_ctrl.dram.readBursts                767431                       # Number of DRAM read bursts (Count)
system.mem_ctrl.dram.writeBursts               762615                       # Number of DRAM write bursts (Count)
system.mem_ctrl.dram.perBankRdBursts::0         48103                       # Per bank write bursts (Count)
system.mem_ctrl.dram.perBankRdBursts::1         48027                       # Per bank write bursts (Count)
system.mem_ctrl.dram.perBankRdBursts::2         48067                       # Per bank write bursts (Count)
system.mem_ctrl.dram.perBankRdBursts::3         47899                       # Per bank write bursts (Count)
system.mem_ctrl.dram.perBankRdBursts::4         47893                       # Per bank write bursts (Count)
system.mem_ctrl.dram.perBankRdBursts::5         47874                       # Per bank write bursts (Count)
system.mem_ctrl.dram.perBankRdBursts::6         47911                       # Per bank write bursts (Count)
system.mem_ctrl.dram.perBankRdBursts::7         47933                       # Per bank write bursts (Count)
system.mem_ctrl.dram.perBankRdBursts::8         47911                       # Per bank write bursts (Count)
system.mem_ctrl.dram.perBankRdBursts::9         47954                       # Per bank write bursts (Count)
system.mem_ctrl.dram.perBankRdBursts::10        47938                       # Per bank write bursts (Count)
system.mem_ctrl.dram.perBankRdBursts::11        47927                       # Per bank write bursts (Count)
system.mem_ctrl.dram.perBankRdBursts::12        48020                       # Per bank write bursts (Count)
system.mem_ctrl.dram.perBankRdBursts::13        47987                       # Per bank write bursts (Count)
system.mem_ctrl.dram.perBankRdBursts::14        47957                       # Per bank write bursts (Count)
system.mem_ctrl.dram.perBankRdBursts::15        48030                       # Per bank write bursts (Count)
system.mem_ctrl.dram.perBankWrBursts::0         47744                       # Per bank write bursts (Count)
system.mem_ctrl.dram.perBankWrBursts::1         47744                       # Per bank write bursts (Count)
system.mem_ctrl.dram.perBankWrBursts::2         47715                       # Per bank write bursts (Count)
system.mem_ctrl.dram.perBankWrBursts::3         47616                       # Per bank write bursts (Count)
system.mem_ctrl.dram.perBankWrBursts::4         47616                       # Per bank write bursts (Count)
system.mem_ctrl.dram.perBankWrBursts::5         47616                       # Per bank write bursts (Count)
system.mem_ctrl.dram.perBankWrBursts::6         47616                       # Per bank write bursts (Count)
system.mem_ctrl.dram.perBankWrBursts::7         47657                       # Per bank write bursts (Count)
system.mem_ctrl.dram.perBankWrBursts::8         47642                       # Per bank write bursts (Count)
system.mem_ctrl.dram.perBankWrBursts::9         47629                       # Per bank write bursts (Count)
system.mem_ctrl.dram.perBankWrBursts::10        47645                       # Per bank write bursts (Count)
system.mem_ctrl.dram.perBankWrBursts::11        47626                       # Per bank write bursts (Count)
system.mem_ctrl.dram.perBankWrBursts::12        47643                       # Per bank write bursts (Count)
system.mem_ctrl.dram.perBankWrBursts::13        47681                       # Per bank write bursts (Count)
system.mem_ctrl.dram.perBankWrBursts::14        47681                       # Per bank write bursts (Count)
system.mem_ctrl.dram.perBankWrBursts::15        47744                       # Per bank write bursts (Count)
system.mem_ctrl.dram.totQLat              21072065370                       # Total ticks spent queuing (Tick)
system.mem_ctrl.dram.totBusLat             3837155000                       # Total ticks spent in databus transfers (Tick)
system.mem_ctrl.dram.totMemAccLat         35461396620                       # Total ticks spent from burst creation until serviced by the DRAM (Tick)
system.mem_ctrl.dram.avgQLat                 27457.93                       # Average queueing delay per DRAM burst ((Tick/Count))
system.mem_ctrl.dram.avgBusLat                5000.00                       # Average bus latency per DRAM burst ((Tick/Count))
system.mem_ctrl.dram.avgMemAccLat            46207.93                       # Average memory access latency per DRAM burst ((Tick/Count))
system.mem_ctrl.dram.readRowHits               698927                       # Number of row buffer hits during reads (Count)
system.mem_ctrl.dram.writeRowHits              705999                       # Number of row buffer hits during writes (Count)
system.mem_ctrl.dram.readRowHitRate             91.07                       # Row buffer hit rate for reads (Ratio)
system.mem_ctrl.dram.writeRowHitRate            92.58                       # Row buffer hit rate for writes (Ratio)
system.mem_ctrl.dram.bytesPerActivate::samples       125118                       # Bytes accessed per row activation (Byte)
system.mem_ctrl.dram.bytesPerActivate::mean   782.642689                       # Bytes accessed per row activation (Byte)
system.mem_ctrl.dram.bytesPerActivate::gmean   617.397126                       # Bytes accessed per row activation (Byte)
system.mem_ctrl.dram.bytesPerActivate::stdev   353.267840                       # Bytes accessed per row activation (Byte)
system.mem_ctrl.dram.bytesPerActivate::0-127         8240      6.59%      6.59% # Bytes accessed per row activation (Byte)
system.mem_ctrl.dram.bytesPerActivate::128-255        12850     10.27%     16.86% # Bytes accessed per row activation (Byte)
system.mem_ctrl.dram.bytesPerActivate::256-383         4984      3.98%     20.84% # Bytes accessed per row activation (Byte)
system.mem_ctrl.dram.bytesPerActivate::384-511         3280      2.62%     23.46% # Bytes accessed per row activation (Byte)
system.mem_ctrl.dram.bytesPerActivate::512-639         2914      2.33%     25.79% # Bytes accessed per row activation (Byte)
system.mem_ctrl.dram.bytesPerActivate::640-767         3729      2.98%     28.77% # Bytes accessed per row activation (Byte)
system.mem_ctrl.dram.bytesPerActivate::768-895         6834      5.46%     34.23% # Bytes accessed per row activation (Byte)
system.mem_ctrl.dram.bytesPerActivate::896-1023        14166     11.32%     45.55% # Bytes accessed per row activation (Byte)
system.mem_ctrl.dram.bytesPerActivate::1024-1151        68121     54.45%    100.00% # Bytes accessed per row activation (Byte)
system.mem_ctrl.dram.bytesPerActivate::total       125118                       # Bytes accessed per row activation (Byte)
system.mem_ctrl.dram.bytesRead               49115584                       # Total bytes read (Byte)
system.mem_ctrl.dram.bytesWritten            48807360                       # Total bytes written (Byte)
system.mem_ctrl.dram.avgRdBW              1247.550719                       # Average DRAM read bandwidth in MiBytes/s ((Byte/Second))
system.mem_ctrl.dram.avgWrBW              1239.721736                       # Average DRAM write bandwidth in MiBytes/s ((Byte/Second))
system.mem_ctrl.dram.peakBW                  12800.00                       # Theoretical peak bandwidth in MiByte/s ((Byte/Second))
system.mem_ctrl.dram.busUtil                    19.43                       # Data bus utilization in percentage (Ratio)
system.mem_ctrl.dram.busUtilRead                 9.75                       # Data bus utilization in percentage for reads (Ratio)
system.mem_ctrl.dram.busUtilWrite                9.69                       # Data bus utilization in percentage for writes (Ratio)
system.mem_ctrl.dram.pageHitRate                91.82                       # Row buffer hit rate, read and write combined (Ratio)
system.mem_ctrl.dram.power_state.pwrStateResidencyTicks::UNDEFINED  39369609000                       # Cumulative time (in ticks) in various power states (Tick)
system.mem_ctrl.dram.rank0.actEnergy        446664120                       # Energy for activate commands per rank (pJ) (Joule)
system.mem_ctrl.dram.rank0.preEnergy        237403815                       # Energy for precharge commands per rank (pJ) (Joule)
system.mem_ctrl.dram.rank0.readEnergy      2739667980                       # Energy for read commands per rank (pJ) (Joule)
system.mem_ctrl.dram.rank0.writeEnergy     1990500840                       # Energy for write commands per rank (pJ) (Joule)
system.mem_ctrl.dram.rank0.refreshEnergy 3107619840.000000                       # Energy for refresh commands per rank (pJ) (Joule)
system.mem_ctrl.dram.rank0.actBackEnergy   9736275450                       # Energy for active background per rank (pJ) (Joule)
system.mem_ctrl.dram.rank0.preBackEnergy   6918961440                       # Energy for precharge background per rank (pJ) (Joule)
system.mem_ctrl.dram.rank0.actPowerDownEnergy            0                       # Energy for active power-down per rank (pJ) (Joule)
system.mem_ctrl.dram.rank0.prePowerDownEnergy            0                       # Energy for precharge power-down per rank (pJ) (Joule)
system.mem_ctrl.dram.rank0.selfRefreshEnergy            0                       # Energy for self refresh per rank (pJ) (Joule)
system.mem_ctrl.dram.rank0.totalEnergy    25177093485                       # Total energy per rank (pJ) (Joule)
system.mem_ctrl.dram.rank0.averagePower    639.505805                       # Core power per rank (mW) (Watt)
system.mem_ctrl.dram.rank0.totalIdleTime            0                       # Total Idle time Per DRAM Rank (Tick)
system.mem_ctrl.dram.rank0.pwrStateTime::IDLE  17561661902                       # Time in different power states (Tick)
system.mem_ctrl.dram.rank0.pwrStateTime::REF   1314560000                       # Time in different power states (Tick)
system.mem_ctrl.dram.rank0.pwrStateTime::SREF            0                       # Time in different power states (Tick)
system.mem_ctrl.dram.rank0.pwrStateTime::PRE_PDN            0                       # Time in different power states (Tick)
system.mem_ctrl.dram.rank0.pwrStateTime::ACT  20493387098                       # Time in different power states (Tick)
system.mem_ctrl.dram.rank0.pwrStateTime::ACT_PDN            0                       # Time in different power states (Tick)
system.mem_ctrl.dram.rank1.actEnergy        446685540                       # Energy for activate commands per rank (pJ) (Joule)
system.mem_ctrl.dram.rank1.preEnergy        237418995                       # Energy for precharge commands per rank (pJ) (Joule)
system.mem_ctrl.dram.rank1.readEnergy      2739789360                       # Energy for read commands per rank (pJ) (Joule)
system.mem_ctrl.dram.rank1.writeEnergy     1990339020                       # Energy for write commands per rank (pJ) (Joule)
system.mem_ctrl.dram.rank1.refreshEnergy 3107619840.000000                       # Energy for refresh commands per rank (pJ) (Joule)
system.mem_ctrl.dram.rank1.actBackEnergy   9716406390                       # Energy for active background per rank (pJ) (Joule)
system.mem_ctrl.dram.rank1.preBackEnergy   6935693280                       # Energy for precharge background per rank (pJ) (Joule)
system.mem_ctrl.dram.rank1.actPowerDownEnergy            0                       # Energy for active power-down per rank (pJ) (Joule)
system.mem_ctrl.dram.rank1.prePowerDownEnergy            0                       # Energy for precharge power-down per rank (pJ) (Joule)
system.mem_ctrl.dram.rank1.selfRefreshEnergy            0                       # Energy for self refresh per rank (pJ) (Joule)
system.mem_ctrl.dram.rank1.totalEnergy    25173952425                       # Total energy per rank (pJ) (Joule)
system.mem_ctrl.dram.rank1.averagePower    639.426021                       # Core power per rank (mW) (Watt)
system.mem_ctrl.dram.rank1.totalIdleTime            0                       # Total Idle time Per DRAM Rank (Tick)
system.mem_ctrl.dram.rank1.pwrStateTime::IDLE  17610111905                       # Time in different power states (Tick)
system.mem_ctrl.dram.rank1.pwrStateTime::REF   1314560000                       # Time in different power states (Tick)
system.mem_ctrl.dram.rank1.pwrStateTime::SREF            0                       # Time in different power states (Tick)
system.mem_ctrl.dram.rank1.pwrStateTime::PRE_PDN            0                       # Time in different power states (Tick)
system.mem_ctrl.dram.rank1.pwrStateTime::ACT  20444937095                       # Time in different power states (Tick)
system.mem_ctrl.dram.rank1.pwrStateTime::ACT_PDN            0                       # Time in different power states (Tick)
system.mem_ctrl.power_state.pwrStateResidencyTicks::UNDEFINED  39369609000                       # Cumulative time (in ticks) in various power states (Tick)
system.membus.transDist::ReadResp              544998                       # Transaction distribution (Count)
system.membus.transDist::WritebackDirty        762646                       # Transaction distribution (Count)
system.membus.transDist::CleanEvict                97                       # Transaction distribution (Count)
system.membus.transDist::ReadExReq             222433                       # Transaction distribution (Count)
system.membus.transDist::ReadExResp            222433                       # Transaction distribution (Count)
system.membus.transDist::ReadSharedReq         544998                       # Transaction distribution (Count)
system.membus.pktCount_system.l2cache.mem_side_port::system.mem_ctrl.port      2297605                       # Packet count per connected requestor and responder (Count)
system.membus.pktCount_system.l2cache.mem_side_port::total      2297605                       # Packet count per connected requestor and responder (Count)
system.membus.pktCount::total                 2297605                       # Packet count per connected requestor and responder (Count)
system.membus.pktSize_system.l2cache.mem_side_port::system.mem_ctrl.port     97924928                       # Cumulative packet size per connected requestor and responder (Byte)
system.membus.pktSize_system.l2cache.mem_side_port::total     97924928                       # Cumulative packet size per connected requestor and responder (Byte)
system.membus.pktSize::total                 97924928                       # Cumulative packet size per connected requestor and responder (Byte)
system.membus.snoops                                0                       # Total snoops (Count)
system.membus.snoopTraffic                          0                       # Total snoop traffic (Byte)
system.membus.snoopFanout::samples             767431                       # Request fanout histogram (Count)
system.membus.snoopFanout::mean                     0                       # Request fanout histogram (Count)
system.membus.snoopFanout::stdev                    0                       # Request fanout histogram (Count)
system.membus.snoopFanout::underflows               0      0.00%      0.00% # Request fanout histogram (Count)
system.membus.snoopFanout::0                   767431    100.00%    100.00% # Request fanout histogram (Count)
system.membus.snoopFanout::1                        0      0.00%    100.00% # Request fanout histogram (Count)
system.membus.snoopFanout::overflows                0      0.00%    100.00% # Request fanout histogram (Count)
system.membus.snoopFanout::min_value                0                       # Request fanout histogram (Count)
system.membus.snoopFanout::max_value                0                       # Request fanout histogram (Count)
system.membus.snoopFanout::total               767431                       # Request fanout histogram (Count)
system.membus.power_state.pwrStateResidencyTicks::UNDEFINED  39369609000                       # Cumulative time (in ticks) in various power states (Tick)
system.membus.reqLayer2.occupancy          4582659806                       # Layer occupancy (ticks) (Tick)
system.membus.reqLayer2.utilization               0.1                       # Layer utilization (Ratio)
system.membus.respLayer0.occupancy         3973488500                       # Layer occupancy (ticks) (Tick)
system.membus.respLayer0.utilization              0.1                       # Layer utilization (Ratio)
system.membus.snoop_filter.totRequests        1530174                       # Total number of requests made to the snoop filter. (Count)
system.membus.snoop_filter.hitSingleRequests       762743                       # Number of requests hitting in the snoop filter with a single holder of the requested data. (Count)
system.membus.snoop_filter.hitMultiRequests            0                       # Number of requests hitting in the snoop filter with multiple (>1) holders of the requested data. (Count)
system.membus.snoop_filter.totSnoops                0                       # Total number of snoops made to the snoop filter. (Count)
system.membus.snoop_filter.hitSingleSnoops            0                       # Number of snoops hitting in the snoop filter with a single holder of the requested data. (Count)
system.membus.snoop_filter.hitMultiSnoops            0                       # Number of snoops hitting in the snoop filter with multiple (>1) holders of the requested data. (Count)
system.workload.inst.arm                            0                       # number of arm instructions executed (Count)
system.workload.inst.quiesce                        0                       # number of quiesce instructions executed (Count)

---------- End Simulation Statistics   ----------
