
---------- Begin Simulation Statistics ----------
simSeconds                                   0.394915                       # Number of seconds simulated (Second)
simTicks                                 394914674000                       # Number of ticks simulated (Tick)
finalTick                                394914674000                       # Number of ticks from beginning of simulation (restored from checkpoints and never reset) (Tick)
simFreq                                  1000000000000                       # The number of ticks per simulated second ((Tick/Second))
hostSeconds                                    931.83                       # Real time elapsed on the host (Second)
hostTickRate                                423806067                       # The number of ticks simulated per host second (ticks/s) ((Tick/Second))
hostMemory                                    8530824                       # Number of bytes of host memory used (Byte)
simInsts                                     50000000                       # Number of instructions simulated (Count)
simOps                                       95981340                       # Number of ops (including micro ops) simulated (Count)
hostInstRate                                    53658                       # Simulator instruction rate (inst/s) ((Count/Second))
hostOpRate                                     103003                       # Simulator op (including micro ops) rate (op/s) ((Count/Second))
system.clk_domain.clock                          1000                       # Clock period in ticks (Tick)
system.clk_domain.voltage_domain.voltage            1                       # Voltage in Volts (Volt)
system.cpu.numCycles                        394914684                       # Number of cpu cycles simulated (Cycle)
system.cpu.numWorkItemsStarted                      0                       # Number of work items this cpu started (Count)
system.cpu.numWorkItemsCompleted                    0                       # Number of work items this cpu completed (Count)
system.cpu.instsAdded                       100830505                       # Number of instructions added to the IQ (excludes non-spec) (Count)
system.cpu.nonSpecInstsAdded                      695                       # Number of non-speculative instructions added to the IQ (Count)
system.cpu.instsIssued                      100751503                       # Number of instructions issued (Count)
system.cpu.squashedInstsIssued                    471                       # Number of squashed instructions issued (Count)
system.cpu.squashedInstsExamined              4849852                       # Number of squashed instructions iterated over during squash; mainly for profiling (Count)
system.cpu.squashedOperandsExamined          11632775                       # Number of squashed operands that are examined and possibly removed from graph (Count)
system.cpu.squashedNonSpecRemoved                 647                       # Number of squashed non-spec instructions that were removed (Count)
system.cpu.numIssuedDist::samples           394892017                       # Number of insts issued each cycle (Count)
system.cpu.numIssuedDist::mean               0.255137                       # Number of insts issued each cycle (Count)
system.cpu.numIssuedDist::stdev              0.725445                       # Number of insts issued each cycle (Count)
system.cpu.numIssuedDist::underflows                0      0.00%      0.00% # Number of insts issued each cycle (Count)
system.cpu.numIssuedDist::0                 328524424     83.19%     83.19% # Number of insts issued each cycle (Count)
system.cpu.numIssuedDist::1                  50805928     12.87%     96.06% # Number of insts issued each cycle (Count)
system.cpu.numIssuedDist::2                   5236112      1.33%     97.39% # Number of insts issued each cycle (Count)
system.cpu.numIssuedDist::3                   4617533      1.17%     98.55% # Number of insts issued each cycle (Count)
system.cpu.numIssuedDist::4                   4218720      1.07%     99.62% # Number of insts issued each cycle (Count)
system.cpu.numIssuedDist::5                    651888      0.17%     99.79% # Number of insts issued each cycle (Count)
system.cpu.numIssuedDist::6                    509644      0.13%     99.92% # Number of insts issued each cycle (Count)
system.cpu.numIssuedDist::7                    193576      0.05%     99.97% # Number of insts issued each cycle (Count)
system.cpu.numIssuedDist::8                    134192      0.03%    100.00% # Number of insts issued each cycle (Count)
system.cpu.numIssuedDist::overflows                 0      0.00%    100.00% # Number of insts issued each cycle (Count)
system.cpu.numIssuedDist::min_value                 0                       # Number of insts issued each cycle (Count)
system.cpu.numIssuedDist::max_value                 8                       # Number of insts issued each cycle (Count)
system.cpu.numIssuedDist::total             394892017                       # Number of insts issued each cycle (Count)
system.cpu.statFuBusy::No_OpClass                   0      0.00%      0.00% # attempts to use FU when none available (Count)
system.cpu.statFuBusy::IntAlu                   14200      0.76%      0.76% # attempts to use FU when none available (Count)
system.cpu.statFuBusy::IntMult                      0      0.00%      0.76% # attempts to use FU when none available (Count)
system.cpu.statFuBusy::IntDiv                       0      0.00%      0.76% # attempts to use FU when none available (Count)
system.cpu.statFuBusy::FloatAdd                     0      0.00%      0.76% # attempts to use FU when none available (Count)
system.cpu.statFuBusy::FloatCmp                     0      0.00%      0.76% # attempts to use FU when none available (Count)
system.cpu.statFuBusy::FloatCvt                     0      0.00%      0.76% # attempts to use FU when none available (Count)
system.cpu.statFuBusy::FloatMult                    0      0.00%      0.76% # attempts to use FU when none available (Count)
system.cpu.statFuBusy::FloatMultAcc                 0      0.00%      0.76% # attempts to use FU when none available (Count)
system.cpu.statFuBusy::FloatDiv                     0      0.00%      0.76% # attempts to use FU when none available (Count)
system.cpu.statFuBusy::FloatMisc                    0      0.00%      0.76% # attempts to use FU when none available (Count)
system.cpu.statFuBusy::FloatSqrt                    0      0.00%      0.76% # attempts to use FU when none available (Count)
system.cpu.statFuBusy::SimdAdd                      0      0.00%      0.76% # attempts to use FU when none available (Count)
system.cpu.statFuBusy::SimdAddAcc                   0      0.00%      0.76% # attempts to use FU when none available (Count)
system.cpu.statFuBusy::SimdAlu                    118      0.01%      0.77% # attempts to use FU when none available (Count)
system.cpu.statFuBusy::SimdCmp                      0      0.00%      0.77% # attempts to use FU when none available (Count)
system.cpu.statFuBusy::SimdCvt                     30      0.00%      0.77% # attempts to use FU when none available (Count)
system.cpu.statFuBusy::SimdMisc                     7      0.00%      0.77% # attempts to use FU when none available (Count)
system.cpu.statFuBusy::SimdMult                     0      0.00%      0.77% # attempts to use FU when none available (Count)
system.cpu.statFuBusy::SimdMultAcc                  0      0.00%      0.77% # attempts to use FU when none available (Count)
system.cpu.statFuBusy::SimdShift                    0      0.00%      0.77% # attempts to use FU when none available (Count)
system.cpu.statFuBusy::SimdShiftAcc                 0      0.00%      0.77% # attempts to use FU when none available (Count)
system.cpu.statFuBusy::SimdDiv                      0      0.00%      0.77% # attempts to use FU when none available (Count)
system.cpu.statFuBusy::SimdSqrt                     0      0.00%      0.77% # attempts to use FU when none available (Count)
system.cpu.statFuBusy::SimdFloatAdd                 0      0.00%      0.77% # attempts to use FU when none available (Count)
system.cpu.statFuBusy::SimdFloatAlu                 0      0.00%      0.77% # attempts to use FU when none available (Count)
system.cpu.statFuBusy::SimdFloatCmp                 0      0.00%      0.77% # attempts to use FU when none available (Count)
system.cpu.statFuBusy::SimdFloatCvt                 0      0.00%      0.77% # attempts to use FU when none available (Count)
system.cpu.statFuBusy::SimdFloatDiv                 0      0.00%      0.77% # attempts to use FU when none available (Count)
system.cpu.statFuBusy::SimdFloatMisc                0      0.00%      0.77% # attempts to use FU when none available (Count)
system.cpu.statFuBusy::SimdFloatMult                0      0.00%      0.77% # attempts to use FU when none available (Count)
system.cpu.statFuBusy::SimdFloatMultAcc             0      0.00%      0.77% # attempts to use FU when none available (Count)
system.cpu.statFuBusy::SimdFloatSqrt                0      0.00%      0.77% # attempts to use FU when none available (Count)
system.cpu.statFuBusy::SimdReduceAdd                0      0.00%      0.77% # attempts to use FU when none available (Count)
system.cpu.statFuBusy::SimdReduceAlu                0      0.00%      0.77% # attempts to use FU when none available (Count)
system.cpu.statFuBusy::SimdReduceCmp                0      0.00%      0.77% # attempts to use FU when none available (Count)
system.cpu.statFuBusy::SimdFloatReduceAdd            0      0.00%      0.77% # attempts to use FU when none available (Count)
system.cpu.statFuBusy::SimdFloatReduceCmp            0      0.00%      0.77% # attempts to use FU when none available (Count)
system.cpu.statFuBusy::SimdAes                      0      0.00%      0.77% # attempts to use FU when none available (Count)
system.cpu.statFuBusy::SimdAesMix                   0      0.00%      0.77% # attempts to use FU when none available (Count)
system.cpu.statFuBusy::SimdSha1Hash                 0      0.00%      0.77% # attempts to use FU when none available (Count)
system.cpu.statFuBusy::SimdSha1Hash2                0      0.00%      0.77% # attempts to use FU when none available (Count)
system.cpu.statFuBusy::SimdSha256Hash               0      0.00%      0.77% # attempts to use FU when none available (Count)
system.cpu.statFuBusy::SimdSha256Hash2              0      0.00%      0.77% # attempts to use FU when none available (Count)
system.cpu.statFuBusy::SimdShaSigma2                0      0.00%      0.77% # attempts to use FU when none available (Count)
system.cpu.statFuBusy::SimdShaSigma3                0      0.00%      0.77% # attempts to use FU when none available (Count)
system.cpu.statFuBusy::SimdPredAlu                  0      0.00%      0.77% # attempts to use FU when none available (Count)
system.cpu.statFuBusy::MemRead                  51631      2.77%      3.54% # attempts to use FU when none available (Count)
system.cpu.statFuBusy::MemWrite                   914      0.05%      3.59% # attempts to use FU when none available (Count)
system.cpu.statFuBusy::FloatMemRead                25      0.00%      3.59% # attempts to use FU when none available (Count)
system.cpu.statFuBusy::FloatMemWrite          1798933     96.41%    100.00% # attempts to use FU when none available (Count)
system.cpu.statFuBusy::IprAccess                    0      0.00%    100.00% # attempts to use FU when none available (Count)
system.cpu.statFuBusy::InstPrefetch                 0      0.00%    100.00% # attempts to use FU when none available (Count)
system.cpu.statIssuedInstType_0::No_OpClass          941      0.00%      0.00% # Number of instructions issued per FU type, per thread (Count)
system.cpu.statIssuedInstType_0::IntAlu      44531080     44.20%     44.20% # Number of instructions issued per FU type, per thread (Count)
system.cpu.statIssuedInstType_0::IntMult          760      0.00%     44.20% # Number of instructions issued per FU type, per thread (Count)
system.cpu.statIssuedInstType_0::IntDiv            25      0.00%     44.20% # Number of instructions issued per FU type, per thread (Count)
system.cpu.statIssuedInstType_0::FloatAdd          324      0.00%     44.20% # Number of instructions issued per FU type, per thread (Count)
system.cpu.statIssuedInstType_0::FloatCmp            0      0.00%     44.20% # Number of instructions issued per FU type, per thread (Count)
system.cpu.statIssuedInstType_0::FloatCvt            0      0.00%     44.20% # Number of instructions issued per FU type, per thread (Count)
system.cpu.statIssuedInstType_0::FloatMult            0      0.00%     44.20% # Number of instructions issued per FU type, per thread (Count)
system.cpu.statIssuedInstType_0::FloatMultAcc            0      0.00%     44.20% # Number of instructions issued per FU type, per thread (Count)
system.cpu.statIssuedInstType_0::FloatDiv            0      0.00%     44.20% # Number of instructions issued per FU type, per thread (Count)
system.cpu.statIssuedInstType_0::FloatMisc            0      0.00%     44.20% # Number of instructions issued per FU type, per thread (Count)
system.cpu.statIssuedInstType_0::FloatSqrt            0      0.00%     44.20% # Number of instructions issued per FU type, per thread (Count)
system.cpu.statIssuedInstType_0::SimdAdd            0      0.00%     44.20% # Number of instructions issued per FU type, per thread (Count)
system.cpu.statIssuedInstType_0::SimdAddAcc            0      0.00%     44.20% # Number of instructions issued per FU type, per thread (Count)
system.cpu.statIssuedInstType_0::SimdAlu         1004      0.00%     44.20% # Number of instructions issued per FU type, per thread (Count)
system.cpu.statIssuedInstType_0::SimdCmp           12      0.00%     44.20% # Number of instructions issued per FU type, per thread (Count)
system.cpu.statIssuedInstType_0::SimdCvt          835      0.00%     44.20% # Number of instructions issued per FU type, per thread (Count)
system.cpu.statIssuedInstType_0::SimdMisc         2496      0.00%     44.21% # Number of instructions issued per FU type, per thread (Count)
system.cpu.statIssuedInstType_0::SimdMult            0      0.00%     44.21% # Number of instructions issued per FU type, per thread (Count)
system.cpu.statIssuedInstType_0::SimdMultAcc            0      0.00%     44.21% # Number of instructions issued per FU type, per thread (Count)
system.cpu.statIssuedInstType_0::SimdShift            0      0.00%     44.21% # Number of instructions issued per FU type, per thread (Count)
system.cpu.statIssuedInstType_0::SimdShiftAcc            0      0.00%     44.21% # Number of instructions issued per FU type, per thread (Count)
system.cpu.statIssuedInstType_0::SimdDiv            0      0.00%     44.21% # Number of instructions issued per FU type, per thread (Count)
system.cpu.statIssuedInstType_0::SimdSqrt            0      0.00%     44.21% # Number of instructions issued per FU type, per thread (Count)
system.cpu.statIssuedInstType_0::SimdFloatAdd            0      0.00%     44.21% # Number of instructions issued per FU type, per thread (Count)
system.cpu.statIssuedInstType_0::SimdFloatAlu            0      0.00%     44.21% # Number of instructions issued per FU type, per thread (Count)
system.cpu.statIssuedInstType_0::SimdFloatCmp            0      0.00%     44.21% # Number of instructions issued per FU type, per thread (Count)
system.cpu.statIssuedInstType_0::SimdFloatCvt            1      0.00%     44.21% # Number of instructions issued per FU type, per thread (Count)
system.cpu.statIssuedInstType_0::SimdFloatDiv            0      0.00%     44.21% # Number of instructions issued per FU type, per thread (Count)
system.cpu.statIssuedInstType_0::SimdFloatMisc            0      0.00%     44.21% # Number of instructions issued per FU type, per thread (Count)
system.cpu.statIssuedInstType_0::SimdFloatMult            0      0.00%     44.21% # Number of instructions issued per FU type, per thread (Count)
system.cpu.statIssuedInstType_0::SimdFloatMultAcc            0      0.00%     44.21% # Number of instructions issued per FU type, per thread (Count)
system.cpu.statIssuedInstType_0::SimdFloatSqrt            0      0.00%     44.21% # Number of instructions issued per FU type, per thread (Count)
system.cpu.statIssuedInstType_0::SimdReduceAdd            0      0.00%     44.21% # Number of instructions issued per FU type, per thread (Count)
system.cpu.statIssuedInstType_0::SimdReduceAlu            0      0.00%     44.21% # Number of instructions issued per FU type, per thread (Count)
system.cpu.statIssuedInstType_0::SimdReduceCmp            0      0.00%     44.21% # Number of instructions issued per FU type, per thread (Count)
system.cpu.statIssuedInstType_0::SimdFloatReduceAdd            0      0.00%     44.21% # Number of instructions issued per FU type, per thread (Count)
system.cpu.statIssuedInstType_0::SimdFloatReduceCmp            0      0.00%     44.21% # Number of instructions issued per FU type, per thread (Count)
system.cpu.statIssuedInstType_0::SimdAes            0      0.00%     44.21% # Number of instructions issued per FU type, per thread (Count)
system.cpu.statIssuedInstType_0::SimdAesMix            0      0.00%     44.21% # Number of instructions issued per FU type, per thread (Count)
system.cpu.statIssuedInstType_0::SimdSha1Hash            0      0.00%     44.21% # Number of instructions issued per FU type, per thread (Count)
system.cpu.statIssuedInstType_0::SimdSha1Hash2            0      0.00%     44.21% # Number of instructions issued per FU type, per thread (Count)
system.cpu.statIssuedInstType_0::SimdSha256Hash            0      0.00%     44.21% # Number of instructions issued per FU type, per thread (Count)
system.cpu.statIssuedInstType_0::SimdSha256Hash2            0      0.00%     44.21% # Number of instructions issued per FU type, per thread (Count)
system.cpu.statIssuedInstType_0::SimdShaSigma2            0      0.00%     44.21% # Number of instructions issued per FU type, per thread (Count)
system.cpu.statIssuedInstType_0::SimdShaSigma3            0      0.00%     44.21% # Number of instructions issued per FU type, per thread (Count)
system.cpu.statIssuedInstType_0::SimdPredAlu            0      0.00%     44.21% # Number of instructions issued per FU type, per thread (Count)
system.cpu.statIssuedInstType_0::MemRead      1369268      1.36%     45.56% # Number of instructions issued per FU type, per thread (Count)
system.cpu.statIssuedInstType_0::MemWrite       205302      0.20%     45.77% # Number of instructions issued per FU type, per thread (Count)
system.cpu.statIssuedInstType_0::FloatMemRead          521      0.00%     45.77% # Number of instructions issued per FU type, per thread (Count)
system.cpu.statIssuedInstType_0::FloatMemWrite     54638934     54.23%    100.00% # Number of instructions issued per FU type, per thread (Count)
system.cpu.statIssuedInstType_0::IprAccess            0      0.00%    100.00% # Number of instructions issued per FU type, per thread (Count)
system.cpu.statIssuedInstType_0::InstPrefetch            0      0.00%    100.00% # Number of instructions issued per FU type, per thread (Count)
system.cpu.statIssuedInstType_0::total      100751503                       # Number of instructions issued per FU type, per thread (Count)
system.cpu.issueRate                         0.255122                       # Inst issue rate ((Count/Cycle))
system.cpu.fuBusy                             1865858                       # FU busy when requested (Count)
system.cpu.fuBusyRate                        0.018519                       # FU busy rate (busy events/executed inst) ((Count/Count))
system.cpu.intInstQueueReads                487172685                       # Number of integer instruction queue reads (Count)
system.cpu.intInstQueueWrites                48216888                       # Number of integer instruction queue writes (Count)
system.cpu.intInstQueueWakeupAccesses        46093617                       # Number of integer instruction queue wakeup accesses (Count)
system.cpu.fpInstQueueReads                 111088665                       # Number of floating instruction queue reads (Count)
system.cpu.fpInstQueueWrites                 57464775                       # Number of floating instruction queue writes (Count)
system.cpu.fpInstQueueWakeupAccesses         51834988                       # Number of floating instruction queue wakeup accesses (Count)
system.cpu.vecInstQueueReads                        0                       # Number of vector instruction queue reads (Count)
system.cpu.vecInstQueueWrites                       0                       # Number of vector instruction queue writes (Count)
system.cpu.vecInstQueueWakeupAccesses               0                       # Number of vector instruction queue wakeup accesses (Count)
system.cpu.intAluAccesses                    46172548                       # Number of integer alu accesses (Count)
system.cpu.fpAluAccesses                     56443872                       # Number of floating point alu accesses (Count)
system.cpu.vecAluAccesses                           0                       # Number of vector alu accesses (Count)
system.cpu.numInsts                         100740655                       # Number of executed instructions (Count)
system.cpu.numLoadInsts                       1365291                       # Number of load instructions executed (Count)
system.cpu.numSquashedInsts                     10846                       # Number of squashed instructions skipped in execute (Count)
system.cpu.numSwp                                   0                       # Number of swp insts executed (Count)
system.cpu.numNop                                   0                       # Number of nop insts executed (Count)
system.cpu.numRefs                           56207882                       # Number of memory reference insts executed (Count)
system.cpu.numBranches                        6858838                       # Number of branches executed (Count)
system.cpu.numStoreInsts                     54842591                       # Number of stores executed (Count)
system.cpu.numRate                           0.255095                       # Inst execution rate ((Count/Cycle))
system.cpu.timesIdled                             465                       # Number of times that the entire CPU went into an idle state and unscheduled itself (Count)
system.cpu.idleCycles                           22667                       # Total number of cycles that the CPU has spent unscheduled due to idling (Cycle)
system.cpu.committedInsts                    50000000                       # Number of Instructions Simulated (Count)
system.cpu.committedOps                      95981340                       # Number of Ops (including micro ops) Simulated (Count)
system.cpu.cpi                               7.898294                       # CPI: Cycles Per Instruction ((Cycle/Count))
system.cpu.totalCpi                          7.898294                       # CPI: Total CPI of All Threads ((Cycle/Count))
system.cpu.ipc                               0.126610                       # IPC: Instructions Per Cycle ((Count/Cycle))
system.cpu.totalIpc                          0.126610                       # IPC: Total IPC of All Threads ((Count/Cycle))
system.cpu.intRegfileReads                  104433715                       # Number of integer regfile reads (Count)
system.cpu.intRegfileWrites                  32078692                       # Number of integer regfile writes (Count)
system.cpu.fpRegfileReads                    54649312                       # Number of floating regfile reads (Count)
system.cpu.fpRegfileWrites                       5265                       # Number of floating regfile writes (Count)
system.cpu.ccRegfileReads                    36058110                       # number of cc regfile reads (Count)
system.cpu.ccRegfileWrites                   30555960                       # number of cc regfile writes (Count)
system.cpu.miscRegfileReads                  69946014                       # number of misc regfile reads (Count)
system.cpu.MemDepUnit__0.insertedLoads        1384705                       # Number of loads inserted to the mem dependence unit. (Count)
system.cpu.MemDepUnit__0.insertedStores      54855030                       # Number of stores inserted to the mem dependence unit. (Count)
system.cpu.MemDepUnit__0.conflictingLoads       219156                       # Number of conflicting loads. (Count)
system.cpu.MemDepUnit__0.conflictingStores        56212                       # Number of conflicting stores. (Count)
system.cpu.MemDepUnit__1.insertedLoads              0                       # Number of loads inserted to the mem dependence unit. (Count)
system.cpu.MemDepUnit__1.insertedStores             0                       # Number of stores inserted to the mem dependence unit. (Count)
system.cpu.MemDepUnit__1.conflictingLoads            0                       # Number of conflicting loads. (Count)
system.cpu.MemDepUnit__1.conflictingStores            0                       # Number of conflicting stores. (Count)
system.cpu.MemDepUnit__2.insertedLoads              0                       # Number of loads inserted to the mem dependence unit. (Count)
system.cpu.MemDepUnit__2.insertedStores             0                       # Number of stores inserted to the mem dependence unit. (Count)
system.cpu.MemDepUnit__2.conflictingLoads            0                       # Number of conflicting loads. (Count)
system.cpu.MemDepUnit__2.conflictingStores            0                       # Number of conflicting stores. (Count)
system.cpu.MemDepUnit__3.insertedLoads              0                       # Number of loads inserted to the mem dependence unit. (Count)
system.cpu.MemDepUnit__3.insertedStores             0                       # Number of stores inserted to the mem dependence unit. (Count)
system.cpu.MemDepUnit__3.conflictingLoads            0                       # Number of conflicting loads. (Count)
system.cpu.MemDepUnit__3.conflictingStores            0                       # Number of conflicting stores. (Count)
system.cpu.branchPred.lookups                 7051517                       # Number of BP lookups (Count)
system.cpu.branchPred.condPredicted           7033101                       # Number of conditional branches predicted (Count)
system.cpu.branchPred.condIncorrect              3575                       # Number of conditional branches incorrect (Count)
system.cpu.branchPred.BTBLookups              7024481                       # Number of BTB lookups (Count)
system.cpu.branchPred.BTBHits                 7021814                       # Number of BTB hits (Count)
system.cpu.branchPred.BTBHitRatio            0.999620                       # BTB Hit Ratio (Ratio)
system.cpu.branchPred.RASUsed                    5864                       # Number of times the RAS was used to get a target. (Count)
system.cpu.branchPred.RASIncorrect                  9                       # Number of incorrect RAS predictions. (Count)
system.cpu.branchPred.indirectLookups            1171                       # Number of indirect predictor lookups. (Count)
system.cpu.branchPred.indirectHits                728                       # Number of indirect target hits. (Count)
system.cpu.branchPred.indirectMisses              443                       # Number of indirect misses. (Count)
system.cpu.branchPred.indirectMispredicted          175                       # Number of mispredicted indirect branches. (Count)
system.cpu.commit.commitSquashedInsts         4844009                       # The number of squashed insts skipped by commit (Count)
system.cpu.commit.commitNonSpecStalls              48                       # The number of times commit has been forced to stall to communicate backwards (Count)
system.cpu.commit.branchMispredicts              2701                       # The number of times a branch was mispredicted (Count)
system.cpu.commit.numCommittedDist::samples    394248954                       # Number of insts commited each cycle (Count)
system.cpu.commit.numCommittedDist::mean     0.243454                       # Number of insts commited each cycle (Count)
system.cpu.commit.numCommittedDist::stdev     0.748324                       # Number of insts commited each cycle (Count)
system.cpu.commit.numCommittedDist::underflows            0      0.00%      0.00% # Number of insts commited each cycle (Count)
system.cpu.commit.numCommittedDist::0       333996579     84.72%     84.72% # Number of insts commited each cycle (Count)
system.cpu.commit.numCommittedDist::1        44868736     11.38%     96.10% # Number of insts commited each cycle (Count)
system.cpu.commit.numCommittedDist::2         1632188      0.41%     96.51% # Number of insts commited each cycle (Count)
system.cpu.commit.numCommittedDist::3        11768353      2.99%     99.50% # Number of insts commited each cycle (Count)
system.cpu.commit.numCommittedDist::4          799200      0.20%     99.70% # Number of insts commited each cycle (Count)
system.cpu.commit.numCommittedDist::5           22675      0.01%     99.71% # Number of insts commited each cycle (Count)
system.cpu.commit.numCommittedDist::6            4410      0.00%     99.71% # Number of insts commited each cycle (Count)
system.cpu.commit.numCommittedDist::7           47970      0.01%     99.72% # Number of insts commited each cycle (Count)
system.cpu.commit.numCommittedDist::8         1108843      0.28%    100.00% # Number of insts commited each cycle (Count)
system.cpu.commit.numCommittedDist::overflows            0      0.00%    100.00% # Number of insts commited each cycle (Count)
system.cpu.commit.numCommittedDist::min_value            0                       # Number of insts commited each cycle (Count)
system.cpu.commit.numCommittedDist::max_value            8                       # Number of insts commited each cycle (Count)
system.cpu.commit.numCommittedDist::total    394248954                       # Number of insts commited each cycle (Count)
system.cpu.commit.instsCommitted             50000000                       # Number of instructions committed (Count)
system.cpu.commit.opsCommitted               95981340                       # Number of ops (including micro ops) committed (Count)
system.cpu.commit.memRefs                    53378545                       # Number of memory references committed (Count)
system.cpu.commit.loads                       1350127                       # Number of loads committed (Count)
system.cpu.commit.amos                              0                       # Number of atomic instructions committed (Count)
system.cpu.commit.membars                          32                       # Number of memory barriers committed (Count)
system.cpu.commit.branches                    6543968                       # Number of branches committed (Count)
system.cpu.commit.vectorInstructions                0                       # Number of committed Vector instructions. (Count)
system.cpu.commit.floating                   51833437                       # Number of committed floating point instructions. (Count)
system.cpu.commit.integer                    95975912                       # Number of committed integer instructions. (Count)
system.cpu.commit.functionCalls                  3805                       # Number of function calls committed. (Count)
system.cpu.commit.committedInstType_0::No_OpClass          552      0.00%      0.00% # Class of committed instruction (Count)
system.cpu.commit.committedInstType_0::IntAlu     42597873     44.38%     44.38% # Class of committed instruction (Count)
system.cpu.commit.committedInstType_0::IntMult          725      0.00%     44.38% # Class of committed instruction (Count)
system.cpu.commit.committedInstType_0::IntDiv           21      0.00%     44.38% # Class of committed instruction (Count)
system.cpu.commit.committedInstType_0::FloatAdd          199      0.00%     44.38% # Class of committed instruction (Count)
system.cpu.commit.committedInstType_0::FloatCmp            0      0.00%     44.38% # Class of committed instruction (Count)
system.cpu.commit.committedInstType_0::FloatCvt            0      0.00%     44.38% # Class of committed instruction (Count)
system.cpu.commit.committedInstType_0::FloatMult            0      0.00%     44.38% # Class of committed instruction (Count)
system.cpu.commit.committedInstType_0::FloatMultAcc            0      0.00%     44.38% # Class of committed instruction (Count)
system.cpu.commit.committedInstType_0::FloatDiv            0      0.00%     44.38% # Class of committed instruction (Count)
system.cpu.commit.committedInstType_0::FloatMisc            0      0.00%     44.38% # Class of committed instruction (Count)
system.cpu.commit.committedInstType_0::FloatSqrt            0      0.00%     44.38% # Class of committed instruction (Count)
system.cpu.commit.committedInstType_0::SimdAdd            0      0.00%     44.38% # Class of committed instruction (Count)
system.cpu.commit.committedInstType_0::SimdAddAcc            0      0.00%     44.38% # Class of committed instruction (Count)
system.cpu.commit.committedInstType_0::SimdAlu          786      0.00%     44.38% # Class of committed instruction (Count)
system.cpu.commit.committedInstType_0::SimdCmp           12      0.00%     44.38% # Class of committed instruction (Count)
system.cpu.commit.committedInstType_0::SimdCvt          788      0.00%     44.38% # Class of committed instruction (Count)
system.cpu.commit.committedInstType_0::SimdMisc         1839      0.00%     44.39% # Class of committed instruction (Count)
system.cpu.commit.committedInstType_0::SimdMult            0      0.00%     44.39% # Class of committed instruction (Count)
system.cpu.commit.committedInstType_0::SimdMultAcc            0      0.00%     44.39% # Class of committed instruction (Count)
system.cpu.commit.committedInstType_0::SimdShift            0      0.00%     44.39% # Class of committed instruction (Count)
system.cpu.commit.committedInstType_0::SimdShiftAcc            0      0.00%     44.39% # Class of committed instruction (Count)
system.cpu.commit.committedInstType_0::SimdDiv            0      0.00%     44.39% # Class of committed instruction (Count)
system.cpu.commit.committedInstType_0::SimdSqrt            0      0.00%     44.39% # Class of committed instruction (Count)
system.cpu.commit.committedInstType_0::SimdFloatAdd            0      0.00%     44.39% # Class of committed instruction (Count)
system.cpu.commit.committedInstType_0::SimdFloatAlu            0      0.00%     44.39% # Class of committed instruction (Count)
system.cpu.commit.committedInstType_0::SimdFloatCmp            0      0.00%     44.39% # Class of committed instruction (Count)
system.cpu.commit.committedInstType_0::SimdFloatCvt            0      0.00%     44.39% # Class of committed instruction (Count)
system.cpu.commit.committedInstType_0::SimdFloatDiv            0      0.00%     44.39% # Class of committed instruction (Count)
system.cpu.commit.committedInstType_0::SimdFloatMisc            0      0.00%     44.39% # Class of committed instruction (Count)
system.cpu.commit.committedInstType_0::SimdFloatMult            0      0.00%     44.39% # Class of committed instruction (Count)
system.cpu.commit.committedInstType_0::SimdFloatMultAcc            0      0.00%     44.39% # Class of committed instruction (Count)
system.cpu.commit.committedInstType_0::SimdFloatSqrt            0      0.00%     44.39% # Class of committed instruction (Count)
system.cpu.commit.committedInstType_0::SimdReduceAdd            0      0.00%     44.39% # Class of committed instruction (Count)
system.cpu.commit.committedInstType_0::SimdReduceAlu            0      0.00%     44.39% # Class of committed instruction (Count)
system.cpu.commit.committedInstType_0::SimdReduceCmp            0      0.00%     44.39% # Class of committed instruction (Count)
system.cpu.commit.committedInstType_0::SimdFloatReduceAdd            0      0.00%     44.39% # Class of committed instruction (Count)
system.cpu.commit.committedInstType_0::SimdFloatReduceCmp            0      0.00%     44.39% # Class of committed instruction (Count)
system.cpu.commit.committedInstType_0::SimdAes            0      0.00%     44.39% # Class of committed instruction (Count)
system.cpu.commit.committedInstType_0::SimdAesMix            0      0.00%     44.39% # Class of committed instruction (Count)
system.cpu.commit.committedInstType_0::SimdSha1Hash            0      0.00%     44.39% # Class of committed instruction (Count)
system.cpu.commit.committedInstType_0::SimdSha1Hash2            0      0.00%     44.39% # Class of committed instruction (Count)
system.cpu.commit.committedInstType_0::SimdSha256Hash            0      0.00%     44.39% # Class of committed instruction (Count)
system.cpu.commit.committedInstType_0::SimdSha256Hash2            0      0.00%     44.39% # Class of committed instruction (Count)
system.cpu.commit.committedInstType_0::SimdShaSigma2            0      0.00%     44.39% # Class of committed instruction (Count)
system.cpu.commit.committedInstType_0::SimdShaSigma3            0      0.00%     44.39% # Class of committed instruction (Count)
system.cpu.commit.committedInstType_0::SimdPredAlu            0      0.00%     44.39% # Class of committed instruction (Count)
system.cpu.commit.committedInstType_0::MemRead      1349679      1.41%     45.79% # Class of committed instruction (Count)
system.cpu.commit.committedInstType_0::MemWrite       199602      0.21%     46.00% # Class of committed instruction (Count)
system.cpu.commit.committedInstType_0::FloatMemRead          448      0.00%     46.00% # Class of committed instruction (Count)
system.cpu.commit.committedInstType_0::FloatMemWrite     51828816     54.00%    100.00% # Class of committed instruction (Count)
system.cpu.commit.committedInstType_0::IprAccess            0      0.00%    100.00% # Class of committed instruction (Count)
system.cpu.commit.committedInstType_0::InstPrefetch            0      0.00%    100.00% # Class of committed instruction (Count)
system.cpu.commit.committedInstType_0::total     95981340                       # Class of committed instruction (Count)
system.cpu.commit.commitEligibleSamples       1108843                       # number cycles where commit BW limit reached (Cycle)
system.cpu.dcache.demandHits::cpu.data       49833734                       # number of demand (read+write) hits (Count)
system.cpu.dcache.demandHits::total          49833734                       # number of demand (read+write) hits (Count)
system.cpu.dcache.overallHits::cpu.data      49833734                       # number of overall hits (Count)
system.cpu.dcache.overallHits::total         49833734                       # number of overall hits (Count)
system.cpu.dcache.demandMisses::cpu.data      3274578                       # number of demand (read+write) misses (Count)
system.cpu.dcache.demandMisses::total         3274578                       # number of demand (read+write) misses (Count)
system.cpu.dcache.overallMisses::cpu.data      3274578                       # number of overall misses (Count)
system.cpu.dcache.overallMisses::total        3274578                       # number of overall misses (Count)
system.cpu.dcache.demandMissLatency::cpu.data 294037825000                       # number of demand (read+write) miss ticks (Tick)
system.cpu.dcache.demandMissLatency::total 294037825000                       # number of demand (read+write) miss ticks (Tick)
system.cpu.dcache.overallMissLatency::cpu.data 294037825000                       # number of overall miss ticks (Tick)
system.cpu.dcache.overallMissLatency::total 294037825000                       # number of overall miss ticks (Tick)
system.cpu.dcache.demandAccesses::cpu.data     53108312                       # number of demand (read+write) accesses (Count)
system.cpu.dcache.demandAccesses::total      53108312                       # number of demand (read+write) accesses (Count)
system.cpu.dcache.overallAccesses::cpu.data     53108312                       # number of overall (read+write) accesses (Count)
system.cpu.dcache.overallAccesses::total     53108312                       # number of overall (read+write) accesses (Count)
system.cpu.dcache.demandMissRate::cpu.data     0.061658                       # miss rate for demand accesses (Ratio)
system.cpu.dcache.demandMissRate::total      0.061658                       # miss rate for demand accesses (Ratio)
system.cpu.dcache.overallMissRate::cpu.data     0.061658                       # miss rate for overall accesses (Ratio)
system.cpu.dcache.overallMissRate::total     0.061658                       # miss rate for overall accesses (Ratio)
system.cpu.dcache.demandAvgMissLatency::cpu.data 89794.112402                       # average overall miss latency in ticks ((Tick/Count))
system.cpu.dcache.demandAvgMissLatency::total 89794.112402                       # average overall miss latency in ticks ((Tick/Count))
system.cpu.dcache.overallAvgMissLatency::cpu.data 89794.112402                       # average overall miss latency ((Tick/Count))
system.cpu.dcache.overallAvgMissLatency::total 89794.112402                       # average overall miss latency ((Tick/Count))
system.cpu.dcache.blockedCycles::no_mshrs         1338                       # number of cycles access was blocked (Cycle)
system.cpu.dcache.blockedCycles::no_targets            0                       # number of cycles access was blocked (Cycle)
system.cpu.dcache.blockedCauses::no_mshrs           45                       # number of times access was blocked (Count)
system.cpu.dcache.blockedCauses::no_targets            0                       # number of times access was blocked (Count)
system.cpu.dcache.avgBlocked::no_mshrs      29.733333                       # average number of cycles each access was blocked ((Cycle/Count))
system.cpu.dcache.avgBlocked::no_targets          nan                       # average number of cycles each access was blocked ((Cycle/Count))
system.cpu.dcache.writebacks::writebacks      6480625                       # number of writebacks (Count)
system.cpu.dcache.writebacks::total           6480625                       # number of writebacks (Count)
system.cpu.dcache.demandMshrHits::cpu.data        62752                       # number of demand (read+write) MSHR hits (Count)
system.cpu.dcache.demandMshrHits::total         62752                       # number of demand (read+write) MSHR hits (Count)
system.cpu.dcache.overallMshrHits::cpu.data        62752                       # number of overall MSHR hits (Count)
system.cpu.dcache.overallMshrHits::total        62752                       # number of overall MSHR hits (Count)
system.cpu.dcache.demandMshrMisses::cpu.data      3211826                       # number of demand (read+write) MSHR misses (Count)
system.cpu.dcache.demandMshrMisses::total      3211826                       # number of demand (read+write) MSHR misses (Count)
system.cpu.dcache.overallMshrMisses::cpu.data      3211826                       # number of overall MSHR misses (Count)
system.cpu.dcache.overallMshrMisses::cpu.dcache.prefetcher      3270164                       # number of overall MSHR misses (Count)
system.cpu.dcache.overallMshrMisses::total      6481990                       # number of overall MSHR misses (Count)
system.cpu.dcache.demandMshrMissLatency::cpu.data 287187052000                       # number of demand (read+write) MSHR miss ticks (Tick)
system.cpu.dcache.demandMshrMissLatency::total 287187052000                       # number of demand (read+write) MSHR miss ticks (Tick)
system.cpu.dcache.overallMshrMissLatency::cpu.data 287187052000                       # number of overall MSHR miss ticks (Tick)
system.cpu.dcache.overallMshrMissLatency::cpu.dcache.prefetcher 297083165571                       # number of overall MSHR miss ticks (Tick)
system.cpu.dcache.overallMshrMissLatency::total 584270217571                       # number of overall MSHR miss ticks (Tick)
system.cpu.dcache.demandMshrMissRate::cpu.data     0.060477                       # mshr miss ratio for demand accesses (Ratio)
system.cpu.dcache.demandMshrMissRate::total     0.060477                       # mshr miss ratio for demand accesses (Ratio)
system.cpu.dcache.overallMshrMissRate::cpu.data     0.060477                       # mshr miss ratio for overall accesses (Ratio)
system.cpu.dcache.overallMshrMissRate::cpu.dcache.prefetcher          inf                       # mshr miss ratio for overall accesses (Ratio)
system.cpu.dcache.overallMshrMissRate::total     0.122052                       # mshr miss ratio for overall accesses (Ratio)
system.cpu.dcache.demandAvgMshrMissLatency::cpu.data 89415.507565                       # average overall mshr miss latency ((Tick/Count))
system.cpu.dcache.demandAvgMshrMissLatency::total 89415.507565                       # average overall mshr miss latency ((Tick/Count))
system.cpu.dcache.overallAvgMshrMissLatency::cpu.data 89415.507565                       # average overall mshr miss latency ((Tick/Count))
system.cpu.dcache.overallAvgMshrMissLatency::cpu.dcache.prefetcher 90846.564751                       # average overall mshr miss latency ((Tick/Count))
system.cpu.dcache.overallAvgMshrMissLatency::total 90137.475925                       # average overall mshr miss latency ((Tick/Count))
system.cpu.dcache.replacements                6480965                       # number of replacements (Count)
system.cpu.dcache.HardPFReq.mshrMisses::cpu.dcache.prefetcher      3270164                       # number of HardPFReq MSHR misses (Count)
system.cpu.dcache.HardPFReq.mshrMisses::total      3270164                       # number of HardPFReq MSHR misses (Count)
system.cpu.dcache.HardPFReq.mshrMissLatency::cpu.dcache.prefetcher 297083165571                       # number of HardPFReq MSHR miss ticks (Tick)
system.cpu.dcache.HardPFReq.mshrMissLatency::total 297083165571                       # number of HardPFReq MSHR miss ticks (Tick)
system.cpu.dcache.HardPFReq.mshrMissRate::cpu.dcache.prefetcher          inf                       # mshr miss rate for HardPFReq accesses (Ratio)
system.cpu.dcache.HardPFReq.mshrMissRate::total          inf                       # mshr miss rate for HardPFReq accesses (Ratio)
system.cpu.dcache.HardPFReq.avgMshrMissLatency::cpu.dcache.prefetcher 90846.564751                       # average HardPFReq mshr miss latency ((Tick/Count))
system.cpu.dcache.HardPFReq.avgMshrMissLatency::total 90846.564751                       # average HardPFReq mshr miss latency ((Tick/Count))
system.cpu.dcache.LockedRMWReadReq.hits::cpu.data           16                       # number of LockedRMWReadReq hits (Count)
system.cpu.dcache.LockedRMWReadReq.hits::total           16                       # number of LockedRMWReadReq hits (Count)
system.cpu.dcache.LockedRMWReadReq.accesses::cpu.data           16                       # number of LockedRMWReadReq accesses(hits+misses) (Count)
system.cpu.dcache.LockedRMWReadReq.accesses::total           16                       # number of LockedRMWReadReq accesses(hits+misses) (Count)
system.cpu.dcache.LockedRMWReadReq.mshrMissLatency::cpu.data       217000                       # number of LockedRMWReadReq MSHR miss ticks (Tick)
system.cpu.dcache.LockedRMWReadReq.mshrMissLatency::total       217000                       # number of LockedRMWReadReq MSHR miss ticks (Tick)
system.cpu.dcache.LockedRMWReadReq.avgMshrMissLatency::cpu.data          inf                       # average LockedRMWReadReq mshr miss latency ((Tick/Count))
system.cpu.dcache.LockedRMWReadReq.avgMshrMissLatency::total          inf                       # average LockedRMWReadReq mshr miss latency ((Tick/Count))
system.cpu.dcache.LockedRMWWriteReq.hits::cpu.data           16                       # number of LockedRMWWriteReq hits (Count)
system.cpu.dcache.LockedRMWWriteReq.hits::total           16                       # number of LockedRMWWriteReq hits (Count)
system.cpu.dcache.LockedRMWWriteReq.accesses::cpu.data           16                       # number of LockedRMWWriteReq accesses(hits+misses) (Count)
system.cpu.dcache.LockedRMWWriteReq.accesses::total           16                       # number of LockedRMWWriteReq accesses(hits+misses) (Count)
system.cpu.dcache.ReadReq.hits::cpu.data      1079293                       # number of ReadReq hits (Count)
system.cpu.dcache.ReadReq.hits::total         1079293                       # number of ReadReq hits (Count)
system.cpu.dcache.ReadReq.misses::cpu.data          740                       # number of ReadReq misses (Count)
system.cpu.dcache.ReadReq.misses::total           740                       # number of ReadReq misses (Count)
system.cpu.dcache.ReadReq.missLatency::cpu.data     55634000                       # number of ReadReq miss ticks (Tick)
system.cpu.dcache.ReadReq.missLatency::total     55634000                       # number of ReadReq miss ticks (Tick)
system.cpu.dcache.ReadReq.accesses::cpu.data      1080033                       # number of ReadReq accesses(hits+misses) (Count)
system.cpu.dcache.ReadReq.accesses::total      1080033                       # number of ReadReq accesses(hits+misses) (Count)
system.cpu.dcache.ReadReq.missRate::cpu.data     0.000685                       # miss rate for ReadReq accesses (Ratio)
system.cpu.dcache.ReadReq.missRate::total     0.000685                       # miss rate for ReadReq accesses (Ratio)
system.cpu.dcache.ReadReq.avgMissLatency::cpu.data 75181.081081                       # average ReadReq miss latency ((Tick/Count))
system.cpu.dcache.ReadReq.avgMissLatency::total 75181.081081                       # average ReadReq miss latency ((Tick/Count))
system.cpu.dcache.ReadReq.mshrHits::cpu.data          367                       # number of ReadReq MSHR hits (Count)
system.cpu.dcache.ReadReq.mshrHits::total          367                       # number of ReadReq MSHR hits (Count)
system.cpu.dcache.ReadReq.mshrMisses::cpu.data          373                       # number of ReadReq MSHR misses (Count)
system.cpu.dcache.ReadReq.mshrMisses::total          373                       # number of ReadReq MSHR misses (Count)
system.cpu.dcache.ReadReq.mshrMissLatency::cpu.data     32253000                       # number of ReadReq MSHR miss ticks (Tick)
system.cpu.dcache.ReadReq.mshrMissLatency::total     32253000                       # number of ReadReq MSHR miss ticks (Tick)
system.cpu.dcache.ReadReq.mshrMissRate::cpu.data     0.000345                       # mshr miss rate for ReadReq accesses (Ratio)
system.cpu.dcache.ReadReq.mshrMissRate::total     0.000345                       # mshr miss rate for ReadReq accesses (Ratio)
system.cpu.dcache.ReadReq.avgMshrMissLatency::cpu.data 86469.168901                       # average ReadReq mshr miss latency ((Tick/Count))
system.cpu.dcache.ReadReq.avgMshrMissLatency::total 86469.168901                       # average ReadReq mshr miss latency ((Tick/Count))
system.cpu.dcache.WriteReq.hits::cpu.data     48754441                       # number of WriteReq hits (Count)
system.cpu.dcache.WriteReq.hits::total       48754441                       # number of WriteReq hits (Count)
system.cpu.dcache.WriteReq.misses::cpu.data      3273838                       # number of WriteReq misses (Count)
system.cpu.dcache.WriteReq.misses::total      3273838                       # number of WriteReq misses (Count)
system.cpu.dcache.WriteReq.missLatency::cpu.data 293982191000                       # number of WriteReq miss ticks (Tick)
system.cpu.dcache.WriteReq.missLatency::total 293982191000                       # number of WriteReq miss ticks (Tick)
system.cpu.dcache.WriteReq.accesses::cpu.data     52028279                       # number of WriteReq accesses(hits+misses) (Count)
system.cpu.dcache.WriteReq.accesses::total     52028279                       # number of WriteReq accesses(hits+misses) (Count)
system.cpu.dcache.WriteReq.missRate::cpu.data     0.062924                       # miss rate for WriteReq accesses (Ratio)
system.cpu.dcache.WriteReq.missRate::total     0.062924                       # miss rate for WriteReq accesses (Ratio)
system.cpu.dcache.WriteReq.avgMissLatency::cpu.data 89797.415449                       # average WriteReq miss latency ((Tick/Count))
system.cpu.dcache.WriteReq.avgMissLatency::total 89797.415449                       # average WriteReq miss latency ((Tick/Count))
system.cpu.dcache.WriteReq.mshrHits::cpu.data        62385                       # number of WriteReq MSHR hits (Count)
system.cpu.dcache.WriteReq.mshrHits::total        62385                       # number of WriteReq MSHR hits (Count)
system.cpu.dcache.WriteReq.mshrMisses::cpu.data      3211453                       # number of WriteReq MSHR misses (Count)
system.cpu.dcache.WriteReq.mshrMisses::total      3211453                       # number of WriteReq MSHR misses (Count)
system.cpu.dcache.WriteReq.mshrMissLatency::cpu.data 287154799000                       # number of WriteReq MSHR miss ticks (Tick)
system.cpu.dcache.WriteReq.mshrMissLatency::total 287154799000                       # number of WriteReq MSHR miss ticks (Tick)
system.cpu.dcache.WriteReq.mshrMissRate::cpu.data     0.061725                       # mshr miss rate for WriteReq accesses (Ratio)
system.cpu.dcache.WriteReq.mshrMissRate::total     0.061725                       # mshr miss rate for WriteReq accesses (Ratio)
system.cpu.dcache.WriteReq.avgMshrMissLatency::cpu.data 89415.849773                       # average WriteReq mshr miss latency ((Tick/Count))
system.cpu.dcache.WriteReq.avgMshrMissLatency::total 89415.849773                       # average WriteReq mshr miss latency ((Tick/Count))
system.cpu.dcache.power_state.pwrStateResidencyTicks::UNDEFINED 394914674000                       # Cumulative time (in ticks) in various power states (Tick)
system.cpu.dcache.prefetcher.demandMshrMisses      3211826                       # demands not covered by prefetchs (Count)
system.cpu.dcache.prefetcher.pfIssued         3308175                       # number of hwpf issued (Count)
system.cpu.dcache.prefetcher.pfUnused              56                       # number of HardPF blocks evicted w/o reference (Count)
system.cpu.dcache.prefetcher.pfUseful         3207727                       # number of useful prefetch (Count)
system.cpu.dcache.prefetcher.pfUsefulButMiss            0                       # number of hit on prefetch but cache block is not in an usable state (Count)
system.cpu.dcache.prefetcher.accuracy        0.969636                       # accuracy of the prefetcher (Count)
system.cpu.dcache.prefetcher.coverage        0.499681                       # coverage brought by this prefetcher (Count)
system.cpu.dcache.prefetcher.pfHitInCache        38010                       # number of prefetches hitting in cache (Count)
system.cpu.dcache.prefetcher.pfHitInMSHR            1                       # number of prefetches hitting in a MSHR (Count)
system.cpu.dcache.prefetcher.pfHitInWB              0                       # number of prefetches hit in the Write Buffer (Count)
system.cpu.dcache.prefetcher.pfLate             38011                       # number of late prefetches (hitting in cache, MSHR or WB) (Count)
system.cpu.dcache.prefetcher.pfIdentified      3332357                       # number of prefetch candidates identified (Count)
system.cpu.dcache.prefetcher.pfBufferHit        15122                       # number of redundant prefetches already in prefetch queue (Count)
system.cpu.dcache.prefetcher.pfInCache              0                       # number of redundant prefetches already in cache/mshr dropped (Count)
system.cpu.dcache.prefetcher.pfRemovedDemand           25                       # number of prefetches dropped due to a demand for the same address (Count)
system.cpu.dcache.prefetcher.pfRemovedFull            0                       # number of prefetches dropped due to prefetch queue size (Count)
system.cpu.dcache.prefetcher.pfSpanPage         60807                       # number of prefetches that crossed the page (Count)
system.cpu.dcache.prefetcher.pfUsefulSpanPage            0                       # number of prefetches that is useful and crossed the page (Count)
system.cpu.dcache.prefetcher.power_state.pwrStateResidencyTicks::UNDEFINED 394914674000                       # Cumulative time (in ticks) in various power states (Tick)
system.cpu.dcache.tags.tagsInUse          1023.559314                       # Average ticks per tags in use ((Tick/Count))
system.cpu.dcache.tags.totalRefs             56315755                       # Total number of references to valid blocks. (Count)
system.cpu.dcache.tags.sampledRefs            6481989                       # Sample count of references to valid blocks. (Count)
system.cpu.dcache.tags.avgRefs               8.688036                       # Average number of references to valid blocks. ((Count/Count))
system.cpu.dcache.tags.warmupTick              185000                       # The tick when the warmup percentage was hit. (Tick)
system.cpu.dcache.tags.occupancies::cpu.data   507.751903                       # Average occupied blocks per tick, per requestor ((Count/Tick))
system.cpu.dcache.tags.occupancies::cpu.dcache.prefetcher   515.807410                       # Average occupied blocks per tick, per requestor ((Count/Tick))
system.cpu.dcache.tags.avgOccs::cpu.data     0.495851                       # Average percentage of cache occupancy ((Ratio/Tick))
system.cpu.dcache.tags.avgOccs::cpu.dcache.prefetcher     0.503718                       # Average percentage of cache occupancy ((Ratio/Tick))
system.cpu.dcache.tags.avgOccs::total        0.999570                       # Average percentage of cache occupancy ((Ratio/Tick))
system.cpu.dcache.tags.occupanciesTaskId::1022          512                       # Occupied blocks per task id (Count)
system.cpu.dcache.tags.occupanciesTaskId::1024          512                       # Occupied blocks per task id (Count)
system.cpu.dcache.tags.ageTaskId_1022::0           84                       # Occupied blocks per task id, per block age (Count)
system.cpu.dcache.tags.ageTaskId_1022::1          428                       # Occupied blocks per task id, per block age (Count)
system.cpu.dcache.tags.ageTaskId_1024::0           83                       # Occupied blocks per task id, per block age (Count)
system.cpu.dcache.tags.ageTaskId_1024::1          429                       # Occupied blocks per task id, per block age (Count)
system.cpu.dcache.tags.ratioOccsTaskId::1022     0.500000                       # Ratio of occupied blocks and all blocks, per task id (Ratio)
system.cpu.dcache.tags.ratioOccsTaskId::1024     0.500000                       # Ratio of occupied blocks and all blocks, per task id (Ratio)
system.cpu.dcache.tags.tagAccesses          218915365                       # Number of tag accesses (Count)
system.cpu.dcache.tags.dataAccesses         218915365                       # Number of data accesses (Count)
system.cpu.dcache.tags.power_state.pwrStateResidencyTicks::UNDEFINED 394914674000                       # Cumulative time (in ticks) in various power states (Tick)
system.cpu.decode.idleCycles                  4017037                       # Number of cycles decode is idle (Cycle)
system.cpu.decode.blockedCycles             378176392                       # Number of cycles decode is blocked (Cycle)
system.cpu.decode.runCycles                   1171627                       # Number of cycles decode is running (Cycle)
system.cpu.decode.unblockCycles              11479628                       # Number of cycles decode is unblocking (Cycle)
system.cpu.decode.squashCycles                  47333                       # Number of cycles decode is squashing (Cycle)
system.cpu.decode.branchResolved              6845216                       # Number of times decode resolved a branch (Count)
system.cpu.decode.branchMispred                   940                       # Number of times decode detected a branch misprediction (Count)
system.cpu.decode.decodedInsts              101037624                       # Number of instructions handled by decode (Count)
system.cpu.decode.squashedInsts                  4311                       # Number of squashed instructions handled by decode (Count)
system.cpu.fetch.icacheStallCycles             336848                       # Number of cycles fetch is stalled on an Icache miss (Cycle)
system.cpu.fetch.insts                       53635025                       # Number of instructions fetch has processed (Count)
system.cpu.fetch.branches                     7051517                       # Number of branches that fetch encountered (Count)
system.cpu.fetch.predictedBranches            7028406                       # Number of branches that fetch has predicted taken (Count)
system.cpu.fetch.cycles                     394506466                       # Number of cycles fetch has run and was not squashing or blocked (Cycle)
system.cpu.fetch.squashCycles                   96492                       # Number of cycles fetch has spent squashing (Cycle)
system.cpu.fetch.miscStallCycles                   74                       # Number of cycles fetch has spent waiting on interrupts, or bad addresses, or out of MSHRs (Cycle)
system.cpu.fetch.pendingTrapStallCycles           361                       # Number of stall cycles due to pending traps (Cycle)
system.cpu.fetch.icacheWaitRetryStallCycles           22                       # Number of stall cycles due to full MSHR (Cycle)
system.cpu.fetch.cacheLines                    303842                       # Number of cache lines fetched (Count)
system.cpu.fetch.icacheSquashes                  1620                       # Number of outstanding Icache misses that were squashed (Count)
system.cpu.fetch.nisnDist::samples          394892017                       # Number of instructions fetched each cycle (Total) (Count)
system.cpu.fetch.nisnDist::mean              0.261340                       # Number of instructions fetched each cycle (Total) (Count)
system.cpu.fetch.nisnDist::stdev             1.287280                       # Number of instructions fetched each cycle (Total) (Count)
system.cpu.fetch.nisnDist::underflows               0      0.00%      0.00% # Number of instructions fetched each cycle (Total) (Count)
system.cpu.fetch.nisnDist::0                376350244     95.30%     95.30% # Number of instructions fetched each cycle (Total) (Count)
system.cpu.fetch.nisnDist::1                   956267      0.24%     95.55% # Number of instructions fetched each cycle (Total) (Count)
system.cpu.fetch.nisnDist::2                  2365585      0.60%     96.15% # Number of instructions fetched each cycle (Total) (Count)
system.cpu.fetch.nisnDist::3                   983379      0.25%     96.39% # Number of instructions fetched each cycle (Total) (Count)
system.cpu.fetch.nisnDist::4                  2413681      0.61%     97.01% # Number of instructions fetched each cycle (Total) (Count)
system.cpu.fetch.nisnDist::5                   960220      0.24%     97.25% # Number of instructions fetched each cycle (Total) (Count)
system.cpu.fetch.nisnDist::6                  3069993      0.78%     98.03% # Number of instructions fetched each cycle (Total) (Count)
system.cpu.fetch.nisnDist::7                   653351      0.17%     98.19% # Number of instructions fetched each cycle (Total) (Count)
system.cpu.fetch.nisnDist::8                  7139297      1.81%    100.00% # Number of instructions fetched each cycle (Total) (Count)
system.cpu.fetch.nisnDist::overflows                0      0.00%    100.00% # Number of instructions fetched each cycle (Total) (Count)
system.cpu.fetch.nisnDist::min_value                0                       # Number of instructions fetched each cycle (Total) (Count)
system.cpu.fetch.nisnDist::max_value                8                       # Number of instructions fetched each cycle (Total) (Count)
system.cpu.fetch.nisnDist::total            394892017                       # Number of instructions fetched each cycle (Total) (Count)
system.cpu.fetch.branchRate                  0.017856                       # Number of branch fetches per cycle (Ratio)
system.cpu.fetch.rate                        0.135814                       # Number of inst fetches per cycle ((Count/Cycle))
system.cpu.icache.demandHits::cpu.inst         302487                       # number of demand (read+write) hits (Count)
system.cpu.icache.demandHits::total            302487                       # number of demand (read+write) hits (Count)
system.cpu.icache.overallHits::cpu.inst        302487                       # number of overall hits (Count)
system.cpu.icache.overallHits::total           302487                       # number of overall hits (Count)
system.cpu.icache.demandMisses::cpu.inst         1354                       # number of demand (read+write) misses (Count)
system.cpu.icache.demandMisses::total            1354                       # number of demand (read+write) misses (Count)
system.cpu.icache.overallMisses::cpu.inst         1354                       # number of overall misses (Count)
system.cpu.icache.overallMisses::total           1354                       # number of overall misses (Count)
system.cpu.icache.demandMissLatency::cpu.inst    107359999                       # number of demand (read+write) miss ticks (Tick)
system.cpu.icache.demandMissLatency::total    107359999                       # number of demand (read+write) miss ticks (Tick)
system.cpu.icache.overallMissLatency::cpu.inst    107359999                       # number of overall miss ticks (Tick)
system.cpu.icache.overallMissLatency::total    107359999                       # number of overall miss ticks (Tick)
system.cpu.icache.demandAccesses::cpu.inst       303841                       # number of demand (read+write) accesses (Count)
system.cpu.icache.demandAccesses::total        303841                       # number of demand (read+write) accesses (Count)
system.cpu.icache.overallAccesses::cpu.inst       303841                       # number of overall (read+write) accesses (Count)
system.cpu.icache.overallAccesses::total       303841                       # number of overall (read+write) accesses (Count)
system.cpu.icache.demandMissRate::cpu.inst     0.004456                       # miss rate for demand accesses (Ratio)
system.cpu.icache.demandMissRate::total      0.004456                       # miss rate for demand accesses (Ratio)
system.cpu.icache.overallMissRate::cpu.inst     0.004456                       # miss rate for overall accesses (Ratio)
system.cpu.icache.overallMissRate::total     0.004456                       # miss rate for overall accesses (Ratio)
system.cpu.icache.demandAvgMissLatency::cpu.inst 79290.988922                       # average overall miss latency in ticks ((Tick/Count))
system.cpu.icache.demandAvgMissLatency::total 79290.988922                       # average overall miss latency in ticks ((Tick/Count))
system.cpu.icache.overallAvgMissLatency::cpu.inst 79290.988922                       # average overall miss latency ((Tick/Count))
system.cpu.icache.overallAvgMissLatency::total 79290.988922                       # average overall miss latency ((Tick/Count))
system.cpu.icache.blockedCycles::no_mshrs          137                       # number of cycles access was blocked (Cycle)
system.cpu.icache.blockedCycles::no_targets            0                       # number of cycles access was blocked (Cycle)
system.cpu.icache.blockedCauses::no_mshrs            8                       # number of times access was blocked (Count)
system.cpu.icache.blockedCauses::no_targets            0                       # number of times access was blocked (Count)
system.cpu.icache.avgBlocked::no_mshrs      17.125000                       # average number of cycles each access was blocked ((Cycle/Count))
system.cpu.icache.avgBlocked::no_targets          nan                       # average number of cycles each access was blocked ((Cycle/Count))
system.cpu.icache.demandMshrHits::cpu.inst          359                       # number of demand (read+write) MSHR hits (Count)
system.cpu.icache.demandMshrHits::total           359                       # number of demand (read+write) MSHR hits (Count)
system.cpu.icache.overallMshrHits::cpu.inst          359                       # number of overall MSHR hits (Count)
system.cpu.icache.overallMshrHits::total          359                       # number of overall MSHR hits (Count)
system.cpu.icache.demandMshrMisses::cpu.inst          995                       # number of demand (read+write) MSHR misses (Count)
system.cpu.icache.demandMshrMisses::total          995                       # number of demand (read+write) MSHR misses (Count)
system.cpu.icache.overallMshrMisses::cpu.inst          995                       # number of overall MSHR misses (Count)
system.cpu.icache.overallMshrMisses::total          995                       # number of overall MSHR misses (Count)
system.cpu.icache.demandMshrMissLatency::cpu.inst     86105999                       # number of demand (read+write) MSHR miss ticks (Tick)
system.cpu.icache.demandMshrMissLatency::total     86105999                       # number of demand (read+write) MSHR miss ticks (Tick)
system.cpu.icache.overallMshrMissLatency::cpu.inst     86105999                       # number of overall MSHR miss ticks (Tick)
system.cpu.icache.overallMshrMissLatency::total     86105999                       # number of overall MSHR miss ticks (Tick)
system.cpu.icache.demandMshrMissRate::cpu.inst     0.003275                       # mshr miss ratio for demand accesses (Ratio)
system.cpu.icache.demandMshrMissRate::total     0.003275                       # mshr miss ratio for demand accesses (Ratio)
system.cpu.icache.overallMshrMissRate::cpu.inst     0.003275                       # mshr miss ratio for overall accesses (Ratio)
system.cpu.icache.overallMshrMissRate::total     0.003275                       # mshr miss ratio for overall accesses (Ratio)
system.cpu.icache.demandAvgMshrMissLatency::cpu.inst 86538.692462                       # average overall mshr miss latency ((Tick/Count))
system.cpu.icache.demandAvgMshrMissLatency::total 86538.692462                       # average overall mshr miss latency ((Tick/Count))
system.cpu.icache.overallAvgMshrMissLatency::cpu.inst 86538.692462                       # average overall mshr miss latency ((Tick/Count))
system.cpu.icache.overallAvgMshrMissLatency::total 86538.692462                       # average overall mshr miss latency ((Tick/Count))
system.cpu.icache.replacements                    158                       # number of replacements (Count)
system.cpu.icache.ReadReq.hits::cpu.inst       302487                       # number of ReadReq hits (Count)
system.cpu.icache.ReadReq.hits::total          302487                       # number of ReadReq hits (Count)
system.cpu.icache.ReadReq.misses::cpu.inst         1354                       # number of ReadReq misses (Count)
system.cpu.icache.ReadReq.misses::total          1354                       # number of ReadReq misses (Count)
system.cpu.icache.ReadReq.missLatency::cpu.inst    107359999                       # number of ReadReq miss ticks (Tick)
system.cpu.icache.ReadReq.missLatency::total    107359999                       # number of ReadReq miss ticks (Tick)
system.cpu.icache.ReadReq.accesses::cpu.inst       303841                       # number of ReadReq accesses(hits+misses) (Count)
system.cpu.icache.ReadReq.accesses::total       303841                       # number of ReadReq accesses(hits+misses) (Count)
system.cpu.icache.ReadReq.missRate::cpu.inst     0.004456                       # miss rate for ReadReq accesses (Ratio)
system.cpu.icache.ReadReq.missRate::total     0.004456                       # miss rate for ReadReq accesses (Ratio)
system.cpu.icache.ReadReq.avgMissLatency::cpu.inst 79290.988922                       # average ReadReq miss latency ((Tick/Count))
system.cpu.icache.ReadReq.avgMissLatency::total 79290.988922                       # average ReadReq miss latency ((Tick/Count))
system.cpu.icache.ReadReq.mshrHits::cpu.inst          359                       # number of ReadReq MSHR hits (Count)
system.cpu.icache.ReadReq.mshrHits::total          359                       # number of ReadReq MSHR hits (Count)
system.cpu.icache.ReadReq.mshrMisses::cpu.inst          995                       # number of ReadReq MSHR misses (Count)
system.cpu.icache.ReadReq.mshrMisses::total          995                       # number of ReadReq MSHR misses (Count)
system.cpu.icache.ReadReq.mshrMissLatency::cpu.inst     86105999                       # number of ReadReq MSHR miss ticks (Tick)
system.cpu.icache.ReadReq.mshrMissLatency::total     86105999                       # number of ReadReq MSHR miss ticks (Tick)
system.cpu.icache.ReadReq.mshrMissRate::cpu.inst     0.003275                       # mshr miss rate for ReadReq accesses (Ratio)
system.cpu.icache.ReadReq.mshrMissRate::total     0.003275                       # mshr miss rate for ReadReq accesses (Ratio)
system.cpu.icache.ReadReq.avgMshrMissLatency::cpu.inst 86538.692462                       # average ReadReq mshr miss latency ((Tick/Count))
system.cpu.icache.ReadReq.avgMshrMissLatency::total 86538.692462                       # average ReadReq mshr miss latency ((Tick/Count))
system.cpu.icache.power_state.pwrStateResidencyTicks::UNDEFINED 394914674000                       # Cumulative time (in ticks) in various power states (Tick)
system.cpu.icache.prefetcher.demandMshrMisses          995                       # demands not covered by prefetchs (Count)
system.cpu.icache.prefetcher.pfIssued               0                       # number of hwpf issued (Count)
system.cpu.icache.prefetcher.pfUseful               0                       # number of useful prefetch (Count)
system.cpu.icache.prefetcher.pfUsefulButMiss            0                       # number of hit on prefetch but cache block is not in an usable state (Count)
system.cpu.icache.prefetcher.accuracy             nan                       # accuracy of the prefetcher (Count)
system.cpu.icache.prefetcher.coverage               0                       # coverage brought by this prefetcher (Count)
system.cpu.icache.prefetcher.pfHitInCache            0                       # number of prefetches hitting in cache (Count)
system.cpu.icache.prefetcher.pfHitInMSHR            0                       # number of prefetches hitting in a MSHR (Count)
system.cpu.icache.prefetcher.pfHitInWB              0                       # number of prefetches hit in the Write Buffer (Count)
system.cpu.icache.prefetcher.pfLate                 0                       # number of late prefetches (hitting in cache, MSHR or WB) (Count)
system.cpu.icache.prefetcher.pfIdentified            0                       # number of prefetch candidates identified (Count)
system.cpu.icache.prefetcher.pfBufferHit            0                       # number of redundant prefetches already in prefetch queue (Count)
system.cpu.icache.prefetcher.pfInCache              0                       # number of redundant prefetches already in cache/mshr dropped (Count)
system.cpu.icache.prefetcher.pfRemovedDemand            0                       # number of prefetches dropped due to a demand for the same address (Count)
system.cpu.icache.prefetcher.pfRemovedFull            0                       # number of prefetches dropped due to prefetch queue size (Count)
system.cpu.icache.prefetcher.pfSpanPage             0                       # number of prefetches that crossed the page (Count)
system.cpu.icache.prefetcher.pfUsefulSpanPage            0                       # number of prefetches that is useful and crossed the page (Count)
system.cpu.icache.prefetcher.power_state.pwrStateResidencyTicks::UNDEFINED 394914674000                       # Cumulative time (in ticks) in various power states (Tick)
system.cpu.icache.tags.tagsInUse           592.669479                       # Average ticks per tags in use ((Tick/Count))
system.cpu.icache.tags.totalRefs               303482                       # Total number of references to valid blocks. (Count)
system.cpu.icache.tags.sampledRefs                995                       # Sample count of references to valid blocks. (Count)
system.cpu.icache.tags.avgRefs             305.007035                       # Average number of references to valid blocks. ((Count/Count))
system.cpu.icache.tags.warmupTick               88000                       # The tick when the warmup percentage was hit. (Tick)
system.cpu.icache.tags.occupancies::cpu.inst   592.669479                       # Average occupied blocks per tick, per requestor ((Count/Tick))
system.cpu.icache.tags.avgOccs::cpu.inst     0.578779                       # Average percentage of cache occupancy ((Ratio/Tick))
system.cpu.icache.tags.avgOccs::total        0.578779                       # Average percentage of cache occupancy ((Ratio/Tick))
system.cpu.icache.tags.occupanciesTaskId::1024          837                       # Occupied blocks per task id (Count)
system.cpu.icache.tags.ageTaskId_1024::4          837                       # Occupied blocks per task id, per block age (Count)
system.cpu.icache.tags.ratioOccsTaskId::1024     0.817383                       # Ratio of occupied blocks and all blocks, per task id (Ratio)
system.cpu.icache.tags.tagAccesses            1216359                       # Number of tag accesses (Count)
system.cpu.icache.tags.dataAccesses           1216359                       # Number of data accesses (Count)
system.cpu.icache.tags.power_state.pwrStateResidencyTicks::UNDEFINED 394914674000                       # Cumulative time (in ticks) in various power states (Tick)
system.cpu.iew.idleCycles                           0                       # Number of cycles IEW is idle (Cycle)
system.cpu.iew.squashCycles                     47333                       # Number of cycles IEW is squashing (Cycle)
system.cpu.iew.blockCycles                   19066531                       # Number of cycles IEW is blocking (Cycle)
system.cpu.iew.unblockCycles                210462351                       # Number of cycles IEW is unblocking (Cycle)
system.cpu.iew.dispatchedInsts              100831200                       # Number of instructions dispatched to IQ (Count)
system.cpu.iew.dispSquashedInsts                   68                       # Number of squashed instructions skipped by dispatch (Count)
system.cpu.iew.dispLoadInsts                  1384705                       # Number of dispatched load instructions (Count)
system.cpu.iew.dispStoreInsts                54855030                       # Number of dispatched store instructions (Count)
system.cpu.iew.dispNonSpecInsts                   232                       # Number of dispatched non-speculative instructions (Count)
system.cpu.iew.iqFullEvents                     20686                       # Number of times the IQ has become full, causing a stall (Count)
system.cpu.iew.lsqFullEvents                210430866                       # Number of times the LSQ has become full, causing a stall (Count)
system.cpu.iew.memOrderViolationEvents            618                       # Number of memory order violations (Count)
[...]
system.mem_ctrl.dram.numWrites::writebacks      6477518                       # Number of write requests responded to by this memory (Count)
system.mem_ctrl.dram.numWrites::total         6477518                       # Number of write requests responded to by this memory (Count)
system.mem_ctrl.dram.bwRead::cpu.inst          160926                       # Total read bandwidth from this memory ((Byte/Second))
system.mem_ctrl.dram.bwRead::cpu.data       518430814                       # Total read bandwidth from this memory ((Byte/Second))
system.mem_ctrl.dram.bwRead::cpu.dcache.prefetcher    526831859                       # Total read bandwidth from this memory ((Byte/Second))
system.mem_ctrl.dram.bwRead::l2cache.prefetcher      5207484                       # Total read bandwidth from this memory ((Byte/Second))
system.mem_ctrl.dram.bwRead::total         1050631084                       # Total read bandwidth from this memory ((Byte/Second))
system.mem_ctrl.dram.bwInstRead::cpu.inst       160926                       # Instruction read bandwidth from this memory ((Byte/Second))
system.mem_ctrl.dram.bwInstRead::total         160926                       # Instruction read bandwidth from this memory ((Byte/Second))
system.mem_ctrl.dram.bwWrite::writebacks   1049748665                       # Write bandwidth from this memory ((Byte/Second))
system.mem_ctrl.dram.bwWrite::total        1049748665                       # Write bandwidth from this memory ((Byte/Second))
system.mem_ctrl.dram.bwTotal::writebacks   1049748665                       # Total bandwidth to/from this memory ((Byte/Second))
system.mem_ctrl.dram.bwTotal::cpu.inst         160926                       # Total bandwidth to/from this memory ((Byte/Second))
system.mem_ctrl.dram.bwTotal::cpu.data      518430814                       # Total bandwidth to/from this memory ((Byte/Second))
system.mem_ctrl.dram.bwTotal::cpu.dcache.prefetcher    526831859                       # Total bandwidth to/from this memory ((Byte/Second))
system.mem_ctrl.dram.bwTotal::l2cache.prefetcher      5207484                       # Total bandwidth to/from this memory ((Byte/Second))
system.mem_ctrl.dram.bwTotal::total        2100379749                       # Total bandwidth to/from this memory ((Byte/Second))
system.mem_ctrl.dram.readBursts               6482963                       # Number of DRAM read bursts (Count)
system.mem_ctrl.dram.writeBursts              6477494                       # Number of DRAM write bursts (Count)
system.mem_ctrl.dram.perBankRdBursts::0        405125                       # Per bank write bursts (Count)
system.mem_ctrl.dram.perBankRdBursts::1        405067                       # Per bank write bursts (Count)
system.mem_ctrl.dram.perBankRdBursts::2        405053                       # Per bank write bursts (Count)
system.mem_ctrl.dram.perBankRdBursts::3        405235                       # Per bank write bursts (Count)
system.mem_ctrl.dram.perBankRdBursts::4        405293                       # Per bank write bursts (Count)
system.mem_ctrl.dram.perBankRdBursts::5        405249                       # Per bank write bursts (Count)
system.mem_ctrl.dram.perBankRdBursts::6        405185                       # Per bank write bursts (Count)
system.mem_ctrl.dram.perBankRdBursts::7        405039                       # Per bank write bursts (Count)
system.mem_ctrl.dram.perBankRdBursts::8        404894                       # Per bank write bursts (Count)
system.mem_ctrl.dram.perBankRdBursts::9        405169                       # Per bank write bursts (Count)
system.mem_ctrl.dram.perBankRdBursts::10       405275                       # Per bank write bursts (Count)
system.mem_ctrl.dram.perBankRdBursts::11       405339                       # Per bank write bursts (Count)
system.mem_ctrl.dram.perBankRdBursts::12       405140                       # Per bank write bursts (Count)
system.mem_ctrl.dram.perBankRdBursts::13       405381                       # Per bank write bursts (Count)
system.mem_ctrl.dram.perBankRdBursts::14       405252                       # Per bank write bursts (Count)
system.mem_ctrl.dram.perBankRdBursts::15       405267                       # Per bank write bursts (Count)
system.mem_ctrl.dram.perBankWrBursts::0        404736                       # Per bank write bursts (Count)
system.mem_ctrl.dram.perBankWrBursts::1        404748                       # Per bank write bursts (Count)
system.mem_ctrl.dram.perBankWrBursts::2        404764                       # Per bank write bursts (Count)
system.mem_ctrl.dram.perBankWrBursts::3        404865                       # Per bank write bursts (Count)
system.mem_ctrl.dram.perBankWrBursts::4        404880                       # Per bank write bursts (Count)
system.mem_ctrl.dram.perBankWrBursts::5        404863                       # Per bank write bursts (Count)
system.mem_ctrl.dram.perBankWrBursts::6        404882                       # Per bank write bursts (Count)
system.mem_ctrl.dram.perBankWrBursts::7        404656                       # Per bank write bursts (Count)
system.mem_ctrl.dram.perBankWrBursts::8        404592                       # Per bank write bursts (Count)
system.mem_ctrl.dram.perBankWrBursts::9        404815                       # Per bank write bursts (Count)
system.mem_ctrl.dram.perBankWrBursts::10       404936                       # Per bank write bursts (Count)
system.mem_ctrl.dram.perBankWrBursts::11       405028                       # Per bank write bursts (Count)
system.mem_ctrl.dram.perBankWrBursts::12       404836                       # Per bank write bursts (Count)
system.mem_ctrl.dram.perBankWrBursts::13       405044                       # Per bank write bursts (Count)
system.mem_ctrl.dram.perBankWrBursts::14       404931                       # Per bank write bursts (Count)
system.mem_ctrl.dram.perBankWrBursts::15       404918                       # Per bank write bursts (Count)
system.mem_ctrl.dram.totQLat             114828728305                       # Total ticks spent queuing (Tick)
system.mem_ctrl.dram.totBusLat            32414815000                       # Total ticks spent in databus transfers (Tick)
system.mem_ctrl.dram.totMemAccLat        236384284555                       # Total ticks spent from burst creation until serviced by the DRAM (Tick)
system.mem_ctrl.dram.avgQLat                 17712.38                       # Average queueing delay per DRAM burst ((Tick/Count))
system.mem_ctrl.dram.avgBusLat                5000.00                       # Average bus latency per DRAM burst ((Tick/Count))
system.mem_ctrl.dram.avgMemAccLat            36462.38                       # Average memory access latency per DRAM burst ((Tick/Count))
system.mem_ctrl.dram.readRowHits              5997612                       # Number of row buffer hits during reads (Count)
system.mem_ctrl.dram.writeRowHits             6011315                       # Number of row buffer hits during writes (Count)
system.mem_ctrl.dram.readRowHitRate             92.51                       # Row buffer hit rate for reads (Ratio)
system.mem_ctrl.dram.writeRowHitRate            92.80                       # Row buffer hit rate for writes (Ratio)
system.mem_ctrl.dram.bytesPerActivate::samples       951529                       # Bytes accessed per row activation (Byte)
system.mem_ctrl.dram.bytesPerActivate::mean   871.721568                       # Bytes accessed per row activation (Byte)
system.mem_ctrl.dram.bytesPerActivate::gmean   769.958713                       # Bytes accessed per row activation (Byte)
system.mem_ctrl.dram.bytesPerActivate::stdev   285.595042                       # Bytes accessed per row activation (Byte)
system.mem_ctrl.dram.bytesPerActivate::0-127        32251      3.39%      3.39% # Bytes accessed per row activation (Byte)
system.mem_ctrl.dram.bytesPerActivate::128-255        34066      3.58%      6.97% # Bytes accessed per row activation (Byte)
system.mem_ctrl.dram.bytesPerActivate::256-383        28881      3.04%     10.00% # Bytes accessed per row activation (Byte)
system.mem_ctrl.dram.bytesPerActivate::384-511        44082      4.63%     14.64% # Bytes accessed per row activation (Byte)
system.mem_ctrl.dram.bytesPerActivate::512-639        34513      3.63%     18.26% # Bytes accessed per row activation (Byte)
system.mem_ctrl.dram.bytesPerActivate::640-767        34470      3.62%     21.89% # Bytes accessed per row activation (Byte)
system.mem_ctrl.dram.bytesPerActivate::768-895        23125      2.43%     24.32% # Bytes accessed per row activation (Byte)
system.mem_ctrl.dram.bytesPerActivate::896-1023        41669      4.38%     28.70% # Bytes accessed per row activation (Byte)
system.mem_ctrl.dram.bytesPerActivate::1024-1151       678472     71.30%    100.00% # Bytes accessed per row activation (Byte)
system.mem_ctrl.dram.bytesPerActivate::total       951529                       # Bytes accessed per row activation (Byte)
system.mem_ctrl.dram.bytesRead              414909632                       # Total bytes read (Byte)
system.mem_ctrl.dram.bytesWritten           414559616                       # Total bytes written (Byte)
system.mem_ctrl.dram.avgRdBW              1050.631084                       # Average DRAM read bandwidth in MiBytes/s ((Byte/Second))
system.mem_ctrl.dram.avgWrBW              1049.744776                       # Average DRAM write bandwidth in MiBytes/s ((Byte/Second))
system.mem_ctrl.dram.peakBW                  12800.00                       # Theoretical peak bandwidth in MiByte/s ((Byte/Second))
system.mem_ctrl.dram.busUtil                    16.41                       # Data bus utilization in percentage (Ratio)
system.mem_ctrl.dram.busUtilRead                 8.21                       # Data bus utilization in percentage for reads (Ratio)
system.mem_ctrl.dram.busUtilWrite                8.20                       # Data bus utilization in percentage for writes (Ratio)
system.mem_ctrl.dram.pageHitRate                92.66                       # Row buffer hit rate, read and write combined (Ratio)
system.mem_ctrl.dram.power_state.pwrStateResidencyTicks::UNDEFINED 394914674000                       # Cumulative time (in ticks) in various power states (Tick)
system.mem_ctrl.dram.rank0.actEnergy       3396647940                       # Energy for activate commands per rank (pJ) (Joule)
system.mem_ctrl.dram.rank0.preEnergy       1805361195                       # Energy for precharge commands per rank (pJ) (Joule)
system.mem_ctrl.dram.rank0.readEnergy     23142496440                       # Energy for read commands per rank (pJ) (Joule)
system.mem_ctrl.dram.rank0.writeEnergy    16904416680                       # Energy for write commands per rank (pJ) (Joule)
system.mem_ctrl.dram.rank0.refreshEnergy 31173926160.000004                       # Energy for refresh commands per rank (pJ) (Joule)
system.mem_ctrl.dram.rank0.actBackEnergy  97896731640                       # Energy for active background per rank (pJ) (Joule)
system.mem_ctrl.dram.rank0.preBackEnergy  69207882240                       # Energy for precharge background per rank (pJ) (Joule)
system.mem_ctrl.dram.rank0.actPowerDownEnergy            0                       # Energy for active power-down per rank (pJ) (Joule)
system.mem_ctrl.dram.rank0.prePowerDownEnergy            0                       # Energy for precharge power-down per rank (pJ) (Joule)
system.mem_ctrl.dram.rank0.selfRefreshEnergy            0                       # Energy for self refresh per rank (pJ) (Joule)
system.mem_ctrl.dram.rank0.totalEnergy   243527462295                       # Total energy per rank (pJ) (Joule)
system.mem_ctrl.dram.rank0.averagePower    616.658429                       # Core power per rank (mW) (Watt)
system.mem_ctrl.dram.rank0.totalIdleTime            0                       # Total Idle time Per DRAM Rank (Tick)
system.mem_ctrl.dram.rank0.pwrStateTime::IDLE 176973586966                       # Time in different power states (Tick)
system.mem_ctrl.dram.rank0.pwrStateTime::REF  13186940000                       # Time in different power states (Tick)
system.mem_ctrl.dram.rank0.pwrStateTime::SREF            0                       # Time in different power states (Tick)
system.mem_ctrl.dram.rank0.pwrStateTime::PRE_PDN            0                       # Time in different power states (Tick)
system.mem_ctrl.dram.rank0.pwrStateTime::ACT 204754147034                       # Time in different power states (Tick)
system.mem_ctrl.dram.rank0.pwrStateTime::ACT_PDN            0                       # Time in different power states (Tick)
system.mem_ctrl.dram.rank1.actEnergy       3397276260                       # Energy for activate commands per rank (pJ) (Joule)
system.mem_ctrl.dram.rank1.preEnergy       1805691360                       # Energy for precharge commands per rank (pJ) (Joule)
system.mem_ctrl.dram.rank1.readEnergy     23145859380                       # Energy for read commands per rank (pJ) (Joule)
system.mem_ctrl.dram.rank1.writeEnergy    16908102000                       # Energy for write commands per rank (pJ) (Joule)
system.mem_ctrl.dram.rank1.refreshEnergy 31173926160.000004                       # Energy for refresh commands per rank (pJ) (Joule)
system.mem_ctrl.dram.rank1.actBackEnergy  97885930140                       # Energy for active background per rank (pJ) (Joule)
system.mem_ctrl.dram.rank1.preBackEnergy  69216978240                       # Energy for precharge background per rank (pJ) (Joule)
system.mem_ctrl.dram.rank1.actPowerDownEnergy            0                       # Energy for active power-down per rank (pJ) (Joule)
system.mem_ctrl.dram.rank1.prePowerDownEnergy            0                       # Energy for precharge power-down per rank (pJ) (Joule)
system.mem_ctrl.dram.rank1.selfRefreshEnergy            0                       # Energy for self refresh per rank (pJ) (Joule)
system.mem_ctrl.dram.rank1.totalEnergy   243533763540                       # Total energy per rank (pJ) (Joule)
system.mem_ctrl.dram.rank1.averagePower    616.674385                       # Core power per rank (mW) (Watt)
system.mem_ctrl.dram.rank1.totalIdleTime            0                       # Total Idle time Per DRAM Rank (Tick)
system.mem_ctrl.dram.rank1.pwrStateTime::IDLE 176997014471                       # Time in different power states (Tick)
system.mem_ctrl.dram.rank1.pwrStateTime::REF  13186940000                       # Time in different power states (Tick)
system.mem_ctrl.dram.rank1.pwrStateTime::SREF            0                       # Time in different power states (Tick)
system.mem_ctrl.dram.rank1.pwrStateTime::PRE_PDN            0                       # Time in different power states (Tick)
system.mem_ctrl.dram.rank1.pwrStateTime::ACT 204730719529                       # Time in different power states (Tick)
system.mem_ctrl.dram.rank1.pwrStateTime::ACT_PDN            0                       # Time in different power states (Tick)
system.mem_ctrl.power_state.pwrStateResidencyTicks::UNDEFINED 394914674000                       # Cumulative time (in ticks) in various power states (Tick)
system.membus.transDist::ReadResp             3284307                       # Transaction distribution (Count)
system.membus.transDist::WritebackDirty       6477518                       # Transaction distribution (Count)
system.membus.transDist::CleanEvict               512                       # Transaction distribution (Count)
system.membus.transDist::ReadExReq            3198656                       # Transaction distribution (Count)
system.membus.transDist::ReadExResp           3198656                       # Transaction distribution (Count)
system.membus.transDist::ReadSharedReq        3284307                       # Transaction distribution (Count)
system.membus.pktCount_system.l2cache.mem_side_port::system.mem_ctrl.port     19443956                       # Packet count per connected requestor and responder (Count)
system.membus.pktCount_system.l2cache.mem_side_port::total     19443956                       # Packet count per connected requestor and responder (Count)
system.membus.pktCount::total                19443956                       # Packet count per connected requestor and responder (Count)
system.membus.pktSize_system.l2cache.mem_side_port::system.mem_ctrl.port    829470784                       # Cumulative packet size per connected requestor and responder (Byte)
system.membus.pktSize_system.l2cache.mem_side_port::total    829470784                       # Cumulative packet size per connected requestor and responder (Byte)
system.membus.pktSize::total                829470784                       # Cumulative packet size per connected requestor and responder (Byte)
system.membus.snoops                                0                       # Total snoops (Count)
system.membus.snoopTraffic                          0                       # Total snoop traffic (Byte)
system.membus.snoopFanout::samples            6482963                       # Request fanout histogram (Count)
system.membus.snoopFanout::mean                     0                       # Request fanout histogram (Count)
system.membus.snoopFanout::stdev                    0                       # Request fanout histogram (Count)
system.membus.snoopFanout::underflows               0      0.00%      0.00% # Request fanout histogram (Count)
system.membus.snoopFanout::0                  6482963    100.00%    100.00% # Request fanout histogram (Count)
system.membus.snoopFanout::1                        0      0.00%    100.00% # Request fanout histogram (Count)
system.membus.snoopFanout::overflows                0      0.00%    100.00% # Request fanout histogram (Count)
system.membus.snoopFanout::min_value                0                       # Request fanout histogram (Count)
system.membus.snoopFanout::max_value                0                       # Request fanout histogram (Count)
system.membus.snoopFanout::total              6482963                       # Request fanout histogram (Count)
system.membus.power_state.pwrStateResidencyTicks::UNDEFINED 394914674000                       # Cumulative time (in ticks) in various power states (Tick)
system.membus.reqLayer2.occupancy         38873545419                       # Layer occupancy (ticks) (Tick)
system.membus.reqLayer2.utilization               0.1                       # Layer utilization (Ratio)
system.membus.respLayer0.occupancy        33658028493                       # Layer occupancy (ticks) (Tick)
system.membus.respLayer0.utilization              0.1                       # Layer utilization (Ratio)
system.membus.snoop_filter.totRequests       12960993                       # Total number of requests made to the snoop filter. (Count)
system.membus.snoop_filter.hitSingleRequests      6478030                       # Number of requests hitting in the snoop filter with a single holder of the requested data. (Count)
system.membus.snoop_filter.hitMultiRequests            0                       # Number of requests hitting in the snoop filter with multiple (>1) holders of the requested data. (Count)
system.membus.snoop_filter.totSnoops                0                       # Total number of snoops made to the snoop filter. (Count)
system.membus.snoop_filter.hitSingleSnoops            0                       # Number of snoops hitting in the snoop filter with a single holder of the requested data. (Count)
system.membus.snoop_filter.hitMultiSnoops            0                       # Number of snoops hitting in the snoop filter with multiple (>1) holders of the requested data. (Count)
system.workload.inst.arm                            0                       # number of arm instructions executed (Count)
system.workload.inst.quiesce                        0                       # number of quiesce instructions executed (Count)

---------- End Simulation Statistics   ----------
