
---------- Begin Simulation Statistics ----------
simSeconds                                   0.007481                       # Number of seconds simulated (Second)
simTicks                                   7480537000                       # Number of ticks simulated (Tick)
finalTick                                  7480537000                       # Number of ticks from beginning of simulation (restored from checkpoints and never reset) (Tick)
simFreq                                  1000000000000                       # The number of ticks per simulated second ((Tick/Second))
hostSeconds                                     24.97                       # Real time elapsed on the host (Second)
hostTickRate                                299556612                       # The number of ticks simulated per host second (ticks/s) ((Tick/Second))
hostMemory                                    8520588                       # Number of bytes of host memory used (Byte)
simInsts                                      5000000                       # Number of instructions simulated (Count)
simOps                                        6001139                       # Number of ops (including micro ops) simulated (Count)
hostInstRate                                   200223                       # Simulator instruction rate (inst/s) ((Count/Second))
hostOpRate                                     240313                       # Simulator op (including micro ops) rate (op/s) ((Count/Second))
system.clk_domain.clock                          1000                       # Clock period in ticks (Tick)
system.clk_domain.voltage_domain.voltage            1                       # Voltage in Volts (Volt)
system.cpu.numCycles                          7480547                       # Number of cpu cycles simulated (Cycle)
system.cpu.numWorkItemsStarted                      0                       # Number of work items this cpu started (Count)
system.cpu.numWorkItemsCompleted                    0                       # Number of work items this cpu completed (Count)
system.cpu.instsAdded                         6056824                       # Number of instructions added to the IQ (excludes non-spec) (Count)
system.cpu.nonSpecInstsAdded                      257                       # Number of non-speculative instructions added to the IQ (Count)
system.cpu.instsIssued                        6043775                       # Number of instructions issued (Count)
system.cpu.squashedInstsIssued                   1487                       # Number of squashed instructions issued (Count)
system.cpu.squashedInstsExamined                55934                       # Number of squashed instructions iterated over during squash; mainly for profiling (Count)
system.cpu.squashedOperandsExamined            112994                       # Number of squashed operands that are examined and possibly removed from graph (Count)
system.cpu.squashedNonSpecRemoved                 209                       # Number of squashed non-spec instructions that were removed (Count)
system.cpu.numIssuedDist::samples             7468689                       # Number of insts issued each cycle (Count)
system.cpu.numIssuedDist::mean               0.809215                       # Number of insts issued each cycle (Count)
system.cpu.numIssuedDist::stdev              1.015185                       # Number of insts issued each cycle (Count)
system.cpu.numIssuedDist::underflows                0      0.00%      0.00% # Number of insts issued each cycle (Count)
system.cpu.numIssuedDist::0                   3899321     52.21%     52.21% # Number of insts issued each cycle (Count)
system.cpu.numIssuedDist::1                   1752182     23.46%     75.67% # Number of insts issued each cycle (Count)
system.cpu.numIssuedDist::2                   1288763     17.26%     92.92% # Number of insts issued each cycle (Count)
system.cpu.numIssuedDist::3                    410105      5.49%     98.42% # Number of insts issued each cycle (Count)
system.cpu.numIssuedDist::4                    109018      1.46%     99.88% # Number of insts issued each cycle (Count)
system.cpu.numIssuedDist::5                      8121      0.11%     99.98% # Number of insts issued each cycle (Count)
system.cpu.numIssuedDist::6                      1178      0.02%    100.00% # Number of insts issued each cycle (Count)
system.cpu.numIssuedDist::7                         1      0.00%    100.00% # Number of insts issued each cycle (Count)
system.cpu.numIssuedDist::8                         0      0.00%    100.00% # Number of insts issued each cycle (Count)
system.cpu.numIssuedDist::overflows                 0      0.00%    100.00% # Number of insts issued each cycle (Count)
system.cpu.numIssuedDist::min_value                 0                       # Number of insts issued each cycle (Count)
system.cpu.numIssuedDist::max_value                 7                       # Number of insts issued each cycle (Count)
system.cpu.numIssuedDist::total               7468689                       # Number of insts issued each cycle (Count)
system.cpu.statFuBusy::No_OpClass                   0      0.00%      0.00% # attempts to use FU when none available (Count)
system.cpu.statFuBusy::IntAlu                  418227     97.56%     97.56% # attempts to use FU when none available (Count)
system.cpu.statFuBusy::IntMult                      0      0.00%     97.56% # attempts to use FU when none available (Count)
system.cpu.statFuBusy::IntDiv                       0      0.00%     97.56% # attempts to use FU when none available (Count)
system.cpu.statFuBusy::FloatAdd                     0      0.00%     97.56% # attempts to use FU when none available (Count)
system.cpu.statFuBusy::FloatCmp                     0      0.00%     97.56% # attempts to use FU when none available (Count)
system.cpu.statFuBusy::FloatCvt                     0      0.00%     97.56% # attempts to use FU when none available (Count)
system.cpu.statFuBusy::FloatMult                    0      0.00%     97.56% # attempts to use FU when none available (Count)
system.cpu.statFuBusy::FloatMultAcc                 0      0.00%     97.56% # attempts to use FU when none available (Count)
system.cpu.statFuBusy::FloatDiv                     0      0.00%     97.56% # attempts to use FU when none available (Count)
system.cpu.statFuBusy::FloatMisc                    0      0.00%     97.56% # attempts to use FU when none available (Count)
system.cpu.statFuBusy::FloatSqrt                    0      0.00%     97.56% # attempts to use FU when none available (Count)
system.cpu.statFuBusy::SimdAdd                      0      0.00%     97.56% # attempts to use FU when none available (Count)
system.cpu.statFuBusy::SimdAddAcc                   0      0.00%     97.56% # attempts to use FU when none available (Count)
system.cpu.statFuBusy::SimdAlu                     40      0.01%     97.57% # attempts to use FU when none available (Count)
system.cpu.statFuBusy::SimdCmp                      0      0.00%     97.57% # attempts to use FU when none available (Count)
system.cpu.statFuBusy::SimdCvt                     12      0.00%     97.58% # attempts to use FU when none available (Count)
system.cpu.statFuBusy::SimdMisc                     2      0.00%     97.58% # attempts to use FU when none available (Count)
system.cpu.statFuBusy::SimdMult                     0      0.00%     97.58% # attempts to use FU when none available (Count)
system.cpu.statFuBusy::SimdMultAcc                  0      0.00%     97.58% # attempts to use FU when none available (Count)
system.cpu.statFuBusy::SimdShift                    0      0.00%     97.58% # attempts to use FU when none available (Count)
system.cpu.statFuBusy::SimdShiftAcc                 0      0.00%     97.58% # attempts to use FU when none available (Count)
system.cpu.statFuBusy::SimdDiv                      0      0.00%     97.58% # attempts to use FU when none available (Count)
system.cpu.statFuBusy::SimdSqrt                     0      0.00%     97.58% # attempts to use FU when none available (Count)
system.cpu.statFuBusy::SimdFloatAdd                 0      0.00%     97.58% # attempts to use FU when none available (Count)
system.cpu.statFuBusy::SimdFloatAlu                 0      0.00%     97.58% # attempts to use FU when none available (Count)
system.cpu.statFuBusy::SimdFloatCmp                 0      0.00%     97.58% # attempts to use FU when none available (Count)
system.cpu.statFuBusy::SimdFloatCvt                 0      0.00%     97.58% # attempts to use FU when none available (Count)
system.cpu.statFuBusy::SimdFloatDiv                 0      0.00%     97.58% # attempts to use FU when none available (Count)
system.cpu.statFuBusy::SimdFloatMisc                0      0.00%     97.58% # attempts to use FU when none available (Count)
system.cpu.statFuBusy::SimdFloatMult                0      0.00%     97.58% # attempts to use FU when none available (Count)
system.cpu.statFuBusy::SimdFloatMultAcc             0      0.00%     97.58% # attempts to use FU when none available (Count)
system.cpu.statFuBusy::SimdFloatSqrt                0      0.00%     97.58% # attempts to use FU when none available (Count)
system.cpu.statFuBusy::SimdReduceAdd                0      0.00%     97.58% # attempts to use FU when none available (Count)
system.cpu.statFuBusy::SimdReduceAlu                0      0.00%     97.58% # attempts to use FU when none available (Count)
system.cpu.statFuBusy::SimdReduceCmp                0      0.00%     97.58% # attempts to use FU when none available (Count)
system.cpu.statFuBusy::SimdFloatReduceAdd            0      0.00%     97.58% # attempts to use FU when none available (Count)
system.cpu.statFuBusy::SimdFloatReduceCmp            0      0.00%     97.58% # attempts to use FU when none available (Count)
system.cpu.statFuBusy::SimdAes                      0      0.00%     97.58% # attempts to use FU when none available (Count)
system.cpu.statFuBusy::SimdAesMix                   0      0.00%     97.58% # attempts to use FU when none available (Count)
system.cpu.statFuBusy::SimdSha1Hash                 0      0.00%     97.58% # attempts to use FU when none available (Count)
system.cpu.statFuBusy::SimdSha1Hash2                0      0.00%     97.58% # attempts to use FU when none available (Count)
system.cpu.statFuBusy::SimdSha256Hash               0      0.00%     97.58% # attempts to use FU when none available (Count)
system.cpu.statFuBusy::SimdSha256Hash2              0      0.00%     97.58% # attempts to use FU when none available (Count)
system.cpu.statFuBusy::SimdShaSigma2                0      0.00%     97.58% # attempts to use FU when none available (Count)
system.cpu.statFuBusy::SimdShaSigma3                0      0.00%     97.58% # attempts to use FU when none available (Count)
system.cpu.statFuBusy::SimdPredAlu                  0      0.00%     97.58% # attempts to use FU when none available (Count)
system.cpu.statFuBusy::MemRead                   8372      1.95%     99.53% # attempts to use FU when none available (Count)
system.cpu.statFuBusy::MemWrite                     3      0.00%     99.53% # attempts to use FU when none available (Count)
system.cpu.statFuBusy::FloatMemRead                 7      0.00%     99.53% # attempts to use FU when none available (Count)
system.cpu.statFuBusy::FloatMemWrite             2006      0.47%    100.00% # attempts to use FU when none available (Count)
system.cpu.statFuBusy::IprAccess                    0      0.00%    100.00% # attempts to use FU when none available (Count)
system.cpu.statFuBusy::InstPrefetch                 0      0.00%    100.00% # attempts to use FU when none available (Count)
system.cpu.statIssuedInstType_0::No_OpClass          161      0.00%      0.00% # Number of instructions issued per FU type, per thread (Count)
system.cpu.statIssuedInstType_0::IntAlu       3986286     65.96%     65.96% # Number of instructions issued per FU type, per thread (Count)
system.cpu.statIssuedInstType_0::IntMult          633      0.01%     65.97% # Number of instructions issued per FU type, per thread (Count)
system.cpu.statIssuedInstType_0::IntDiv            21      0.00%     65.97% # Number of instructions issued per FU type, per thread (Count)
system.cpu.statIssuedInstType_0::FloatAdd           28      0.00%     65.97% # Number of instructions issued per FU type, per thread (Count)
system.cpu.statIssuedInstType_0::FloatCmp            0      0.00%     65.97% # Number of instructions issued per FU type, per thread (Count)
system.cpu.statIssuedInstType_0::FloatCvt            0      0.00%     65.97% # Number of instructions issued per FU type, per thread (Count)
system.cpu.statIssuedInstType_0::FloatMult            0      0.00%     65.97% # Number of instructions issued per FU type, per thread (Count)
system.cpu.statIssuedInstType_0::FloatMultAcc            0      0.00%     65.97% # Number of instructions issued per FU type, per thread (Count)
system.cpu.statIssuedInstType_0::FloatDiv            0      0.00%     65.97% # Number of instructions issued per FU type, per thread (Count)
system.cpu.statIssuedInstType_0::FloatMisc            0      0.00%     65.97% # Number of instructions issued per FU type, per thread (Count)
system.cpu.statIssuedInstType_0::FloatSqrt            0      0.00%     65.97% # Number of instructions issued per FU type, per thread (Count)
system.cpu.statIssuedInstType_0::SimdAdd            0      0.00%     65.97% # Number of instructions issued per FU type, per thread (Count)
system.cpu.statIssuedInstType_0::SimdAddAcc            0      0.00%     65.97% # Number of instructions issued per FU type, per thread (Count)
system.cpu.statIssuedInstType_0::SimdAlu          118      0.00%     65.97% # Number of instructions issued per FU type, per thread (Count)
system.cpu.statIssuedInstType_0::SimdCmp            6      0.00%     65.97% # Number of instructions issued per FU type, per thread (Count)
system.cpu.statIssuedInstType_0::SimdCvt           70      0.00%     65.97% # Number of instructions issued per FU type, per thread (Count)
system.cpu.statIssuedInstType_0::SimdMisc          204      0.00%     65.98% # Number of instructions issued per FU type, per thread (Count)
system.cpu.statIssuedInstType_0::SimdMult            0      0.00%     65.98% # Number of instructions issued per FU type, per thread (Count)
system.cpu.statIssuedInstType_0::SimdMultAcc            0      0.00%     65.98% # Number of instructions issued per FU type, per thread (Count)
system.cpu.statIssuedInstType_0::SimdShift            0      0.00%     65.98% # Number of instructions issued per FU type, per thread (Count)
system.cpu.statIssuedInstType_0::SimdShiftAcc            0      0.00%     65.98% # Number of instructions issued per FU type, per thread (Count)
system.cpu.statIssuedInstType_0::SimdDiv            0      0.00%     65.98% # Number of instructions issued per FU type, per thread (Count)
system.cpu.statIssuedInstType_0::SimdSqrt            0      0.00%     65.98% # Number of instructions issued per FU type, per thread (Count)
system.cpu.statIssuedInstType_0::SimdFloatAdd            0      0.00%     65.98% # Number of instructions issued per FU type, per thread (Count)
system.cpu.statIssuedInstType_0::SimdFloatAlu            0      0.00%     65.98% # Number of instructions issued per FU type, per thread (Count)
system.cpu.statIssuedInstType_0::SimdFloatCmp            0      0.00%     65.98% # Number of instructions issued per FU type, per thread (Count)
system.cpu.statIssuedInstType_0::SimdFloatCvt            0      0.00%     65.98% # Number of instructions issued per FU type, per thread (Count)
system.cpu.statIssuedInstType_0::SimdFloatDiv            0      0.00%     65.98% # Number of instructions issued per FU type, per thread (Count)
system.cpu.statIssuedInstType_0::SimdFloatMisc            0      0.00%     65.98% # Number of instructions issued per FU type, per thread (Count)
system.cpu.statIssuedInstType_0::SimdFloatMult            0      0.00%     65.98% # Number of instructions issued per FU type, per thread (Count)
system.cpu.statIssuedInstType_0::SimdFloatMultAcc            0      0.00%     65.98% # Number of instructions issued per FU type, per thread (Count)
system.cpu.statIssuedInstType_0::SimdFloatSqrt            0      0.00%     65.98% # Number of instructions issued per FU type, per thread (Count)
system.cpu.statIssuedInstType_0::SimdReduceAdd            0      0.00%     65.98% # Number of instructions issued per FU type, per thread (Count)
system.cpu.statIssuedInstType_0::SimdReduceAlu            0      0.00%     65.98% # Number of instructions issued per FU type, per thread (Count)
system.cpu.statIssuedInstType_0::SimdReduceCmp            0      0.00%     65.98% # Number of instructions issued per FU type, per thread (Count)
system.cpu.statIssuedInstType_0::SimdFloatReduceAdd            0      0.00%     65.98% # Number of instructions issued per FU type, per thread (Count)
system.cpu.statIssuedInstType_0::SimdFloatReduceCmp            0      0.00%     65.98% # Number of instructions issued per FU type, per thread (Count)
system.cpu.statIssuedInstType_0::SimdAes            0      0.00%     65.98% # Number of instructions issued per FU type, per thread (Count)
system.cpu.statIssuedInstType_0::SimdAesMix            0      0.00%     65.98% # Number of instructions issued per FU type, per thread (Count)
system.cpu.statIssuedInstType_0::SimdSha1Hash            0      0.00%     65.98% # Number of instructions issued per FU type, per thread (Count)
system.cpu.statIssuedInstType_0::SimdSha1Hash2            0      0.00%     65.98% # Number of instructions issued per FU type, per thread (Count)
system.cpu.statIssuedInstType_0::SimdSha256Hash            0      0.00%     65.98% # Number of instructions issued per FU type, per thread (Count)
system.cpu.statIssuedInstType_0::SimdSha256Hash2            0      0.00%     65.98% # Number of instructions issued per FU type, per thread (Count)
system.cpu.statIssuedInstType_0::SimdShaSigma2            0      0.00%     65.98% # Number of instructions issued per FU type, per thread (Count)
system.cpu.statIssuedInstType_0::SimdShaSigma3            0      0.00%     65.98% # Number of instructions issued per FU type, per thread (Count)
system.cpu.statIssuedInstType_0::SimdPredAlu            0      0.00%     65.98% # Number of instructions issued per FU type, per thread (Count)
system.cpu.statIssuedInstType_0::MemRead      1317897     21.81%     87.78% # Number of instructions issued per FU type, per thread (Count)
system.cpu.statIssuedInstType_0::MemWrite       182301      3.02%     90.80% # Number of instructions issued per FU type, per thread (Count)
system.cpu.statIssuedInstType_0::FloatMemRead           86      0.00%     90.80% # Number of instructions issued per FU type, per thread (Count)
system.cpu.statIssuedInstType_0::FloatMemWrite       555964      9.20%    100.00% # Number of instructions issued per FU type, per thread (Count)
system.cpu.statIssuedInstType_0::IprAccess            0      0.00%    100.00% # Number of instructions issued per FU type, per thread (Count)
system.cpu.statIssuedInstType_0::InstPrefetch            0      0.00%    100.00% # Number of instructions issued per FU type, per thread (Count)
system.cpu.statIssuedInstType_0::total        6043775                       # Number of instructions issued per FU type, per thread (Count)
system.cpu.issueRate                         0.807932                       # Inst issue rate ((Count/Cycle))
system.cpu.fuBusy                              428669                       # FU busy when requested (Count)
system.cpu.fuBusyRate                        0.070927                       # FU busy rate (busy events/executed inst) ((Count/Count))
system.cpu.intInstQueueReads                 18871317                       # Number of integer instruction queue reads (Count)
system.cpu.intInstQueueWrites                 5538954                       # Number of integer instruction queue writes (Count)
system.cpu.intInstQueueWakeupAccesses         5485290                       # Number of integer instruction queue wakeup accesses (Count)
system.cpu.fpInstQueueReads                   1115076                       # Number of floating instruction queue reads (Count)
system.cpu.fpInstQueueWrites                   574157                       # Number of floating instruction queue writes (Count)
system.cpu.fpInstQueueWakeupAccesses           543953                       # Number of floating instruction queue wakeup accesses (Count)
system.cpu.vecInstQueueReads                        0                       # Number of vector instruction queue reads (Count)
system.cpu.vecInstQueueWrites                       0                       # Number of vector instruction queue writes (Count)
system.cpu.vecInstQueueWakeupAccesses               0                       # Number of vector instruction queue wakeup accesses (Count)
system.cpu.intAluAccesses                     5913713                       # Number of integer alu accesses (Count)
system.cpu.fpAluAccesses                       558570                       # Number of floating point alu accesses (Count)
system.cpu.vecAluAccesses                           0                       # Number of vector alu accesses (Count)
system.cpu.numInsts                           6042212                       # Number of executed instructions (Count)
system.cpu.numLoadInsts                       1317491                       # Number of load instructions executed (Count)
system.cpu.numSquashedInsts                      1561                       # Number of squashed instructions skipped in execute (Count)
system.cpu.numSwp                                   0                       # Number of swp insts executed (Count)
system.cpu.numNop                                   0                       # Number of nop insts executed (Count)
system.cpu.numRefs                            2055340                       # Number of memory reference insts executed (Count)
system.cpu.numBranches                         113097                       # Number of branches executed (Count)
system.cpu.numStoreInsts                       737849                       # Number of stores executed (Count)
system.cpu.numRate                           0.807723                       # Inst execution rate ((Count/Cycle))
system.cpu.timesIdled                             251                       # Number of times that the entire CPU went into an idle state and unscheduled itself (Count)
system.cpu.idleCycles                           11858                       # Total number of cycles that the CPU has spent unscheduled due to idling (Cycle)
system.cpu.committedInsts                     5000000                       # Number of Instructions Simulated (Count)
system.cpu.committedOps                       6001139                       # Number of Ops (including micro ops) Simulated (Count)
system.cpu.cpi                               1.496109                       # CPI: Cycles Per Instruction ((Cycle/Count))
system.cpu.totalCpi                          1.496109                       # CPI: Total CPI of All Threads ((Cycle/Count))
system.cpu.ipc                               0.668400                       # IPC: Instructions Per Cycle ((Count/Cycle))
system.cpu.totalIpc                          0.668400                       # IPC: Total IPC of All Threads ((Count/Cycle))
system.cpu.intRegfileReads                    9693848                       # Number of integer regfile reads (Count)
system.cpu.intRegfileWrites                   4976039                       # Number of integer regfile writes (Count)
system.cpu.fpRegfileReads                      556807                       # Number of floating regfile reads (Count)
system.cpu.fpRegfileWrites                        435                       # Number of floating regfile writes (Count)
system.cpu.ccRegfileReads                     2334804                       # number of cc regfile reads (Count)
system.cpu.ccRegfileWrites                    3601077                       # number of cc regfile writes (Count)
system.cpu.miscRegfileReads                   2291262                       # number of misc regfile reads (Count)
system.cpu.MemDepUnit__0.insertedLoads        1319877                       # Number of loads inserted to the mem dependence unit. (Count)
system.cpu.MemDepUnit__0.insertedStores        740126                       # Number of stores inserted to the mem dependence unit. (Count)
system.cpu.MemDepUnit__0.conflictingLoads       113971                       # Number of conflicting loads. (Count)
system.cpu.MemDepUnit__0.conflictingStores        32860                       # Number of conflicting stores. (Count)
system.cpu.MemDepUnit__1.insertedLoads              0                       # Number of loads inserted to the mem dependence unit. (Count)
system.cpu.MemDepUnit__1.insertedStores             0                       # Number of stores inserted to the mem dependence unit. (Count)
system.cpu.MemDepUnit__1.conflictingLoads            0                       # Number of conflicting loads. (Count)
system.cpu.MemDepUnit__1.conflictingStores            0                       # Number of conflicting stores. (Count)
system.cpu.MemDepUnit__2.insertedLoads              0                       # Number of loads inserted to the mem dependence unit. (Count)
system.cpu.MemDepUnit__2.insertedStores             0                       # Number of stores inserted to the mem dependence unit. (Count)
system.cpu.MemDepUnit__2.conflictingLoads            0                       # Number of conflicting loads. (Count)
system.cpu.MemDepUnit__2.conflictingStores            0                       # Number of conflicting stores. (Count)
system.cpu.MemDepUnit__3.insertedLoads              0                       # Number of loads inserted to the mem dependence unit. (Count)
system.cpu.MemDepUnit__3.insertedStores             0                       # Number of stores inserted to the mem dependence unit. (Count)
system.cpu.MemDepUnit__3.conflictingLoads            0                       # Number of conflicting loads. (Count)
system.cpu.MemDepUnit__3.conflictingStores            0                       # Number of conflicting stores. (Count)
system.cpu.branchPred.lookups                  119458                       # Number of BP lookups (Count)
system.cpu.branchPred.condPredicted            112155                       # Number of conditional branches predicted (Count)
system.cpu.branchPred.condIncorrect              1101                       # Number of conditional branches incorrect (Count)
system.cpu.branchPred.BTBLookups               113372                       # Number of BTB lookups (Count)
system.cpu.branchPred.BTBHits                  112436                       # Number of BTB hits (Count)
system.cpu.branchPred.BTBHitRatio            0.991744                       # BTB Hit Ratio (Ratio)
system.cpu.branchPred.RASUsed                    2404                       # Number of times the RAS was used to get a target. (Count)
system.cpu.branchPred.RASIncorrect                  1                       # Number of incorrect RAS predictions. (Count)
system.cpu.branchPred.indirectLookups             114                       # Number of indirect predictor lookups. (Count)
system.cpu.branchPred.indirectHits                  9                       # Number of indirect target hits. (Count)
system.cpu.branchPred.indirectMisses              105                       # Number of indirect misses. (Count)
system.cpu.branchPred.indirectMispredicted           48                       # Number of mispredicted indirect branches. (Count)
system.cpu.commit.commitSquashedInsts           48518                       # The number of squashed insts skipped by commit (Count)
system.cpu.commit.commitNonSpecStalls              48                       # The number of times commit has been forced to stall to communicate backwards (Count)
system.cpu.commit.branchMispredicts               847                       # The number of times a branch was mispredicted (Count)
system.cpu.commit.numCommittedDist::samples      7461596                       # Number of insts commited each cycle (Count)
system.cpu.commit.numCommittedDist::mean     0.804270                       # Number of insts commited each cycle (Count)
system.cpu.commit.numCommittedDist::stdev     1.919875                       # Number of insts commited each cycle (Count)
system.cpu.commit.numCommittedDist::underflows            0      0.00%      0.00% # Number of insts commited each cycle (Count)
system.cpu.commit.numCommittedDist::0         5259603     70.49%     70.49% # Number of insts commited each cycle (Count)
system.cpu.commit.numCommittedDist::1         1403732     18.81%     89.30% # Number of insts commited each cycle (Count)
system.cpu.commit.numCommittedDist::2           68653      0.92%     90.22% # Number of insts commited each cycle (Count)
system.cpu.commit.numCommittedDist::3          150102      2.01%     92.23% # Number of insts commited each cycle (Count)
system.cpu.commit.numCommittedDist::4          111803      1.50%     93.73% # Number of insts commited each cycle (Count)
system.cpu.commit.numCommittedDist::5           35440      0.47%     94.21% # Number of insts commited each cycle (Count)
system.cpu.commit.numCommittedDist::6           25627      0.34%     94.55% # Number of insts commited each cycle (Count)
system.cpu.commit.numCommittedDist::7           21467      0.29%     94.84% # Number of insts commited each cycle (Count)
system.cpu.commit.numCommittedDist::8          385169      5.16%    100.00% # Number of insts commited each cycle (Count)
system.cpu.commit.numCommittedDist::overflows            0      0.00%    100.00% # Number of insts commited each cycle (Count)
system.cpu.commit.numCommittedDist::min_value            0                       # Number of insts commited each cycle (Count)
system.cpu.commit.numCommittedDist::max_value            8                       # Number of insts commited each cycle (Count)
system.cpu.commit.numCommittedDist::total      7461596                       # Number of insts commited each cycle (Count)
system.cpu.commit.instsCommitted              5000000                       # Number of instructions committed (Count)
system.cpu.commit.opsCommitted                6001139                       # Number of ops (including micro ops) committed (Count)
system.cpu.commit.memRefs                     2036421                       # Number of memory references committed (Count)
system.cpu.commit.loads                       1315738                       # Number of loads committed (Count)
system.cpu.commit.amos                              0                       # Number of atomic instructions committed (Count)
system.cpu.commit.membars                          32                       # Number of memory barriers committed (Count)
system.cpu.commit.branches                     110279                       # Number of branches committed (Count)
system.cpu.commit.vectorInstructions                0                       # Number of committed Vector instructions. (Count)
system.cpu.commit.floating                     539909                       # Number of committed floating point instructions. (Count)
system.cpu.commit.integer                     6000623                       # Number of committed integer instructions. (Count)
system.cpu.commit.functionCalls                  2144                       # Number of function calls committed. (Count)
system.cpu.commit.committedInstType_0::No_OpClass           31      0.00%      0.00% # Class of committed instruction (Count)
system.cpu.commit.committedInstType_0::IntAlu      3963690     66.05%     66.05% # Class of committed instruction (Count)
system.cpu.commit.committedInstType_0::IntMult          632      0.01%     66.06% # Class of committed instruction (Count)
system.cpu.commit.committedInstType_0::IntDiv           21      0.00%     66.06% # Class of committed instruction (Count)
system.cpu.commit.committedInstType_0::FloatAdd           15      0.00%     66.06% # Class of committed instruction (Count)
system.cpu.commit.committedInstType_0::FloatCmp            0      0.00%     66.06% # Class of committed instruction (Count)
system.cpu.commit.committedInstType_0::FloatCvt            0      0.00%     66.06% # Class of committed instruction (Count)
system.cpu.commit.committedInstType_0::FloatMult            0      0.00%     66.06% # Class of committed instruction (Count)
system.cpu.commit.committedInstType_0::FloatMultAcc            0      0.00%     66.06% # Class of committed instruction (Count)
system.cpu.commit.committedInstType_0::FloatDiv            0      0.00%     66.06% # Class of committed instruction (Count)
system.cpu.commit.committedInstType_0::FloatMisc            0      0.00%     66.06% # Class of committed instruction (Count)
system.cpu.commit.committedInstType_0::FloatSqrt            0      0.00%     66.06% # Class of committed instruction (Count)
system.cpu.commit.committedInstType_0::SimdAdd            0      0.00%     66.06% # Class of committed instruction (Count)
system.cpu.commit.committedInstType_0::SimdAddAcc            0      0.00%     66.06% # Class of committed instruction (Count)
system.cpu.commit.committedInstType_0::SimdAlu           82      0.00%     66.06% # Class of committed instruction (Count)
system.cpu.commit.committedInstType_0::SimdCmp            6      0.00%     66.06% # Class of committed instruction (Count)
system.cpu.commit.committedInstType_0::SimdCvt           68      0.00%     66.06% # Class of committed instruction (Count)
system.cpu.commit.committedInstType_0::SimdMisc          173      0.00%     66.07% # Class of committed instruction (Count)
system.cpu.commit.committedInstType_0::SimdMult            0      0.00%     66.07% # Class of committed instruction (Count)
system.cpu.commit.committedInstType_0::SimdMultAcc            0      0.00%     66.07% # Class of committed instruction (Count)
system.cpu.commit.committedInstType_0::SimdShift            0      0.00%     66.07% # Class of committed instruction (Count)
system.cpu.commit.committedInstType_0::SimdShiftAcc            0      0.00%     66.07% # Class of committed instruction (Count)
system.cpu.commit.committedInstType_0::SimdDiv            0      0.00%     66.07% # Class of committed instruction (Count)
system.cpu.commit.committedInstType_0::SimdSqrt            0      0.00%     66.07% # Class of committed instruction (Count)
system.cpu.commit.committedInstType_0::SimdFloatAdd            0      0.00%     66.07% # Class of committed instruction (Count)
system.cpu.commit.committedInstType_0::SimdFloatAlu            0      0.00%     66.07% # Class of committed instruction (Count)
system.cpu.commit.committedInstType_0::SimdFloatCmp            0      0.00%     66.07% # Class of committed instruction (Count)
system.cpu.commit.committedInstType_0::SimdFloatCvt            0      0.00%     66.07% # Class of committed instruction (Count)
system.cpu.commit.committedInstType_0::SimdFloatDiv            0      0.00%     66.07% # Class of committed instruction (Count)
system.cpu.commit.committedInstType_0::SimdFloatMisc            0      0.00%     66.07% # Class of committed instruction (Count)
system.cpu.commit.committedInstType_0::SimdFloatMult            0      0.00%     66.07% # Class of committed instruction (Count)
system.cpu.commit.committedInstType_0::SimdFloatMultAcc            0      0.00%     66.07% # Class of committed instruction (Count)
system.cpu.commit.committedInstType_0::SimdFloatSqrt            0      0.00%     66.07% # Class of committed instruction (Count)
system.cpu.commit.committedInstType_0::SimdReduceAdd            0      0.00%     66.07% # Class of committed instruction (Count)
system.cpu.commit.committedInstType_0::SimdReduceAlu            0      0.00%     66.07% # Class of committed instruction (Count)
system.cpu.commit.committedInstType_0::SimdReduceCmp            0      0.00%     66.07% # Class of committed instruction (Count)
system.cpu.commit.committedInstType_0::SimdFloatReduceAdd            0      0.00%     66.07% # Class of committed instruction (Count)
system.cpu.commit.committedInstType_0::SimdFloatReduceCmp            0      0.00%     66.07% # Class of committed instruction (Count)
system.cpu.commit.committedInstType_0::SimdAes            0      0.00%     66.07% # Class of committed instruction (Count)
system.cpu.commit.committedInstType_0::SimdAesMix            0      0.00%     66.07% # Class of committed instruction (Count)
system.cpu.commit.committedInstType_0::SimdSha1Hash            0      0.00%     66.07% # Class of committed instruction (Count)
system.cpu.commit.committedInstType_0::SimdSha1Hash2            0      0.00%     66.07% # Class of committed instruction (Count)
system.cpu.commit.committedInstType_0::SimdSha256Hash            0      0.00%     66.07% # Class of committed instruction (Count)
system.cpu.commit.committedInstType_0::SimdSha256Hash2            0      0.00%     66.07% # Class of committed instruction (Count)
system.cpu.commit.committedInstType_0::SimdShaSigma2            0      0.00%     66.07% # Class of committed instruction (Count)
system.cpu.commit.committedInstType_0::SimdShaSigma3            0      0.00%     66.07% # Class of committed instruction (Count)
system.cpu.commit.committedInstType_0::SimdPredAlu            0      0.00%     66.07% # Class of committed instruction (Count)
system.cpu.commit.committedInstType_0::MemRead      1315676     21.92%     87.99% # Class of committed instruction (Count)
system.cpu.commit.committedInstType_0::MemWrite       181205      3.02%     91.01% # Class of committed instruction (Count)
system.cpu.commit.committedInstType_0::FloatMemRead           62      0.00%     91.01% # Class of committed instruction (Count)
system.cpu.commit.committedInstType_0::FloatMemWrite       539478      8.99%    100.00% # Class of committed instruction (Count)
system.cpu.commit.committedInstType_0::IprAccess            0      0.00%    100.00% # Class of committed instruction (Count)
system.cpu.commit.committedInstType_0::InstPrefetch            0      0.00%    100.00% # Class of committed instruction (Count)
system.cpu.commit.committedInstType_0::total      6001139                       # Class of committed instruction (Count)
system.cpu.commit.commitEligibleSamples        385169                       # number cycles where commit BW limit reached (Cycle)
system.cpu.dcache.demandHits::cpu.data        1852155                       # number of demand (read+write) hits (Count)
system.cpu.dcache.demandHits::total           1852155                       # number of demand (read+write) hits (Count)
system.cpu.dcache.overallHits::cpu.data       1852155                       # number of overall hits (Count)
system.cpu.dcache.overallHits::total          1852155                       # number of overall hits (Count)
system.cpu.dcache.demandMisses::cpu.data        35869                       # number of demand (read+write) misses (Count)
system.cpu.dcache.demandMisses::total           35869                       # number of demand (read+write) misses (Count)
system.cpu.dcache.overallMisses::cpu.data        35869                       # number of overall misses (Count)
system.cpu.dcache.overallMisses::total          35869                       # number of overall misses (Count)
system.cpu.dcache.demandMissLatency::cpu.data   3222988000                       # number of demand (read+write) miss ticks (Tick)
system.cpu.dcache.demandMissLatency::total   3222988000                       # number of demand (read+write) miss ticks (Tick)
system.cpu.dcache.overallMissLatency::cpu.data   3222988000                       # number of overall miss ticks (Tick)
system.cpu.dcache.overallMissLatency::total   3222988000                       # number of overall miss ticks (Tick)
system.cpu.dcache.demandAccesses::cpu.data      1888024                       # number of demand (read+write) accesses (Count)
system.cpu.dcache.demandAccesses::total       1888024                       # number of demand (read+write) accesses (Count)
system.cpu.dcache.overallAccesses::cpu.data      1888024                       # number of overall (read+write) accesses (Count)
system.cpu.dcache.overallAccesses::total      1888024                       # number of overall (read+write) accesses (Count)
system.cpu.dcache.demandMissRate::cpu.data     0.018998                       # miss rate for demand accesses (Ratio)
system.cpu.dcache.demandMissRate::total      0.018998                       # miss rate for demand accesses (Ratio)
system.cpu.dcache.overallMissRate::cpu.data     0.018998                       # miss rate for overall accesses (Ratio)
system.cpu.dcache.overallMissRate::total     0.018998                       # miss rate for overall accesses (Ratio)
system.cpu.dcache.demandAvgMissLatency::cpu.data 89854.414676                       # average overall miss latency in ticks ((Tick/Count))
system.cpu.dcache.demandAvgMissLatency::total 89854.414676                       # average overall miss latency in ticks ((Tick/Count))
system.cpu.dcache.overallAvgMissLatency::cpu.data 89854.414676                       # average overall miss latency ((Tick/Count))
system.cpu.dcache.overallAvgMissLatency::total 89854.414676                       # average overall miss latency ((Tick/Count))
system.cpu.dcache.blockedCycles::no_mshrs          161                       # number of cycles access was blocked (Cycle)
system.cpu.dcache.blockedCycles::no_targets            0                       # number of cycles access was blocked (Cycle)
system.cpu.dcache.blockedCauses::no_mshrs           10                       # number of times access was blocked (Count)
system.cpu.dcache.blockedCauses::no_targets            0                       # number of times access was blocked (Count)
system.cpu.dcache.avgBlocked::no_mshrs      16.100000                       # average number of cycles each access was blocked ((Cycle/Count))
system.cpu.dcache.avgBlocked::no_targets          nan                       # average number of cycles each access was blocked ((Cycle/Count))
system.cpu.dcache.writebacks::writebacks        69278                       # number of writebacks (Count)
system.cpu.dcache.writebacks::total             69278                       # number of writebacks (Count)
system.cpu.dcache.demandMshrHits::cpu.data          121                       # number of demand (read+write) MSHR hits (Count)
system.cpu.dcache.demandMshrHits::total           121                       # number of demand (read+write) MSHR hits (Count)
system.cpu.dcache.overallMshrHits::cpu.data          121                       # number of overall MSHR hits (Count)
system.cpu.dcache.overallMshrHits::total          121                       # number of overall MSHR hits (Count)
system.cpu.dcache.demandMshrMisses::cpu.data        35748                       # number of demand (read+write) MSHR misses (Count)
system.cpu.dcache.demandMshrMisses::total        35748                       # number of demand (read+write) MSHR misses (Count)
system.cpu.dcache.overallMshrMisses::cpu.data        35748                       # number of overall MSHR misses (Count)
system.cpu.dcache.overallMshrMisses::cpu.dcache.prefetcher        34670                       # number of overall MSHR misses (Count)
system.cpu.dcache.overallMshrMisses::total        70418                       # number of overall MSHR misses (Count)
system.cpu.dcache.demandMshrMissLatency::cpu.data   3179259000                       # number of demand (read+write) MSHR miss ticks (Tick)
system.cpu.dcache.demandMshrMissLatency::total   3179259000                       # number of demand (read+write) MSHR miss ticks (Tick)
system.cpu.dcache.overallMshrMissLatency::cpu.data   3179259000                       # number of overall MSHR miss ticks (Tick)
system.cpu.dcache.overallMshrMissLatency::cpu.dcache.prefetcher   3488284930                       # number of overall MSHR miss ticks (Tick)
system.cpu.dcache.overallMshrMissLatency::total   6667543930                       # number of overall MSHR miss ticks (Tick)
system.cpu.dcache.demandMshrMissRate::cpu.data     0.018934                       # mshr miss ratio for demand accesses (Ratio)
system.cpu.dcache.demandMshrMissRate::total     0.018934                       # mshr miss ratio for demand accesses (Ratio)
system.cpu.dcache.overallMshrMissRate::cpu.data     0.018934                       # mshr miss ratio for overall accesses (Ratio)
system.cpu.dcache.overallMshrMissRate::cpu.dcache.prefetcher          inf                       # mshr miss ratio for overall accesses (Ratio)
system.cpu.dcache.overallMshrMissRate::total     0.037297                       # mshr miss ratio for overall accesses (Ratio)
system.cpu.dcache.demandAvgMshrMissLatency::cpu.data 88935.297080                       # average overall mshr miss latency ((Tick/Count))
system.cpu.dcache.demandAvgMshrMissLatency::total 88935.297080                       # average overall mshr miss latency ((Tick/Count))
system.cpu.dcache.overallAvgMshrMissLatency::cpu.data 88935.297080                       # average overall mshr miss latency ((Tick/Count))
system.cpu.dcache.overallAvgMshrMissLatency::cpu.dcache.prefetcher 100613.929334                       # average overall mshr miss latency ((Tick/Count))
system.cpu.dcache.overallAvgMshrMissLatency::total 94685.221534                       # average overall mshr miss latency ((Tick/Count))
system.cpu.dcache.replacements                  69391                       # number of replacements (Count)
system.cpu.dcache.HardPFReq.mshrMisses::cpu.dcache.prefetcher        34670                       # number of HardPFReq MSHR misses (Count)
system.cpu.dcache.HardPFReq.mshrMisses::total        34670                       # number of HardPFReq MSHR misses (Count)
system.cpu.dcache.HardPFReq.mshrMissLatency::cpu.dcache.prefetcher   3488284930                       # number of HardPFReq MSHR miss ticks (Tick)
system.cpu.dcache.HardPFReq.mshrMissLatency::total   3488284930                       # number of HardPFReq MSHR miss ticks (Tick)
system.cpu.dcache.HardPFReq.mshrMissRate::cpu.dcache.prefetcher          inf                       # mshr miss rate for HardPFReq accesses (Ratio)
system.cpu.dcache.HardPFReq.mshrMissRate::total          inf                       # mshr miss rate for HardPFReq accesses (Ratio)
system.cpu.dcache.HardPFReq.avgMshrMissLatency::cpu.dcache.prefetcher 100613.929334                       # average HardPFReq mshr miss latency ((Tick/Count))
system.cpu.dcache.HardPFReq.avgMshrMissLatency::total 100613.929334                       # average HardPFReq mshr miss latency ((Tick/Count))
system.cpu.dcache.LockedRMWReadReq.hits::cpu.data           16                       # number of LockedRMWReadReq hits (Count)
system.cpu.dcache.LockedRMWReadReq.hits::total           16                       # number of LockedRMWReadReq hits (Count)
system.cpu.dcache.LockedRMWReadReq.accesses::cpu.data           16                       # number of LockedRMWReadReq accesses(hits+misses) (Count)
system.cpu.dcache.LockedRMWReadReq.accesses::total           16                       # number of LockedRMWReadReq accesses(hits+misses) (Count)
system.cpu.dcache.LockedRMWReadReq.mshrMissLatency::cpu.data       210000                       # number of LockedRMWReadReq MSHR miss ticks (Tick)
system.cpu.dcache.LockedRMWReadReq.mshrMissLatency::total       210000                       # number of LockedRMWReadReq MSHR miss ticks (Tick)
system.cpu.dcache.LockedRMWReadReq.avgMshrMissLatency::cpu.data          inf                       # average LockedRMWReadReq mshr miss latency ((Tick/Count))
system.cpu.dcache.LockedRMWReadReq.avgMshrMissLatency::total          inf                       # average LockedRMWReadReq mshr miss latency ((Tick/Count))
system.cpu.dcache.LockedRMWWriteReq.hits::cpu.data           16                       # number of LockedRMWWriteReq hits (Count)
system.cpu.dcache.LockedRMWWriteReq.hits::total           16                       # number of LockedRMWWriteReq hits (Count)
system.cpu.dcache.LockedRMWWriteReq.accesses::cpu.data           16                       # number of LockedRMWWriteReq accesses(hits+misses) (Count)
system.cpu.dcache.LockedRMWWriteReq.accesses::total           16                       # number of LockedRMWWriteReq accesses(hits+misses) (Count)
system.cpu.dcache.ReadReq.hits::cpu.data      1167147                       # number of ReadReq hits (Count)
system.cpu.dcache.ReadReq.hits::total         1167147                       # number of ReadReq hits (Count)
system.cpu.dcache.ReadReq.misses::cpu.data          222                       # number of ReadReq misses (Count)
system.cpu.dcache.ReadReq.misses::total           222                       # number of ReadReq misses (Count)
system.cpu.dcache.ReadReq.missLatency::cpu.data     16978000                       # number of ReadReq miss ticks (Tick)
system.cpu.dcache.ReadReq.missLatency::total     16978000                       # number of ReadReq miss ticks (Tick)
system.cpu.dcache.ReadReq.accesses::cpu.data      1167369                       # number of ReadReq accesses(hits+misses) (Count)
system.cpu.dcache.ReadReq.accesses::total      1167369                       # number of ReadReq accesses(hits+misses) (Count)
system.cpu.dcache.ReadReq.missRate::cpu.data     0.000190                       # miss rate for ReadReq accesses (Ratio)
system.cpu.dcache.ReadReq.missRate::total     0.000190                       # miss rate for ReadReq accesses (Ratio)
system.cpu.dcache.ReadReq.avgMissLatency::cpu.data 76477.477477                       # average ReadReq miss latency ((Tick/Count))
system.cpu.dcache.ReadReq.avgMissLatency::total 76477.477477                       # average ReadReq miss latency ((Tick/Count))
system.cpu.dcache.ReadReq.mshrHits::cpu.data          106                       # number of ReadReq MSHR hits (Count)
system.cpu.dcache.ReadReq.mshrHits::total          106                       # number of ReadReq MSHR hits (Count)
system.cpu.dcache.ReadReq.mshrMisses::cpu.data          116                       # number of ReadReq MSHR misses (Count)
system.cpu.dcache.ReadReq.mshrMisses::total          116                       # number of ReadReq MSHR misses (Count)
system.cpu.dcache.ReadReq.mshrMissLatency::cpu.data      9589000                       # number of ReadReq MSHR miss ticks (Tick)
system.cpu.dcache.ReadReq.mshrMissLatency::total      9589000                       # number of ReadReq MSHR miss ticks (Tick)
system.cpu.dcache.ReadReq.mshrMissRate::cpu.data     0.000099                       # mshr miss rate for ReadReq accesses (Ratio)
system.cpu.dcache.ReadReq.mshrMissRate::total     0.000099                       # mshr miss rate for ReadReq accesses (Ratio)
system.cpu.dcache.ReadReq.avgMshrMissLatency::cpu.data 82663.793103                       # average ReadReq mshr miss latency ((Tick/Count))
system.cpu.dcache.ReadReq.avgMshrMissLatency::total 82663.793103                       # average ReadReq mshr miss latency ((Tick/Count))
system.cpu.dcache.WriteReq.hits::cpu.data       685008                       # number of WriteReq hits (Count)
system.cpu.dcache.WriteReq.hits::total         685008                       # number of WriteReq hits (Count)
system.cpu.dcache.WriteReq.misses::cpu.data        35647                       # number of WriteReq misses (Count)
system.cpu.dcache.WriteReq.misses::total        35647                       # number of WriteReq misses (Count)
system.cpu.dcache.WriteReq.missLatency::cpu.data   3206010000                       # number of WriteReq miss ticks (Tick)
system.cpu.dcache.WriteReq.missLatency::total   3206010000                       # number of WriteReq miss ticks (Tick)
system.cpu.dcache.WriteReq.accesses::cpu.data       720655                       # number of WriteReq accesses(hits+misses) (Count)
system.cpu.dcache.WriteReq.accesses::total       720655                       # number of WriteReq accesses(hits+misses) (Count)
system.cpu.dcache.WriteReq.missRate::cpu.data     0.049465                       # miss rate for WriteReq accesses (Ratio)
system.cpu.dcache.WriteReq.missRate::total     0.049465                       # miss rate for WriteReq accesses (Ratio)
system.cpu.dcache.WriteReq.avgMissLatency::cpu.data 89937.722670                       # average WriteReq miss latency ((Tick/Count))
system.cpu.dcache.WriteReq.avgMissLatency::total 89937.722670                       # average WriteReq miss latency ((Tick/Count))
system.cpu.dcache.WriteReq.mshrHits::cpu.data           15                       # number of WriteReq MSHR hits (Count)
system.cpu.dcache.WriteReq.mshrHits::total           15                       # number of WriteReq MSHR hits (Count)
system.cpu.dcache.WriteReq.mshrMisses::cpu.data        35632                       # number of WriteReq MSHR misses (Count)
system.cpu.dcache.WriteReq.mshrMisses::total        35632                       # number of WriteReq MSHR misses (Count)
system.cpu.dcache.WriteReq.mshrMissLatency::cpu.data   3169670000                       # number of WriteReq MSHR miss ticks (Tick)
system.cpu.dcache.WriteReq.mshrMissLatency::total   3169670000                       # number of WriteReq MSHR miss ticks (Tick)
system.cpu.dcache.WriteReq.mshrMissRate::cpu.data     0.049444                       # mshr miss rate for WriteReq accesses (Ratio)
system.cpu.dcache.WriteReq.mshrMissRate::total     0.049444                       # mshr miss rate for WriteReq accesses (Ratio)
system.cpu.dcache.WriteReq.avgMshrMissLatency::cpu.data 88955.713965                       # average WriteReq mshr miss latency ((Tick/Count))
system.cpu.dcache.WriteReq.avgMshrMissLatency::total 88955.713965                       # average WriteReq mshr miss latency ((Tick/Count))
system.cpu.dcache.power_state.pwrStateResidencyTicks::UNDEFINED   7480537000                       # Cumulative time (in ticks) in various power states (Tick)
system.cpu.dcache.prefetcher.demandMshrMisses        35748                       # demands not covered by prefetchs (Count)
system.cpu.dcache.prefetcher.pfIssued           34721                       # number of hwpf issued (Count)
system.cpu.dcache.prefetcher.pfUnused              26                       # number of HardPF blocks evicted w/o reference (Count)
system.cpu.dcache.prefetcher.pfUseful           34625                       # number of useful prefetch (Count)
system.cpu.dcache.prefetcher.pfUsefulButMiss            0                       # number of hit on prefetch but cache block is not in an usable state (Count)
system.cpu.dcache.prefetcher.accuracy        0.997235                       # accuracy of the prefetcher (Count)
system.cpu.dcache.prefetcher.coverage        0.492021                       # coverage brought by this prefetcher (Count)
system.cpu.dcache.prefetcher.pfHitInCache           51                       # number of prefetches hitting in cache (Count)
system.cpu.dcache.prefetcher.pfHitInMSHR            0                       # number of prefetches hitting in a MSHR (Count)
system.cpu.dcache.prefetcher.pfHitInWB              0                       # number of prefetches hit in the Write Buffer (Count)
system.cpu.dcache.prefetcher.pfLate                51                       # number of late prefetches (hitting in cache, MSHR or WB) (Count)
system.cpu.dcache.prefetcher.pfIdentified        34809                       # number of prefetch candidates identified (Count)
system.cpu.dcache.prefetcher.pfBufferHit           66                       # number of redundant prefetches already in prefetch queue (Count)
system.cpu.dcache.prefetcher.pfInCache              0                       # number of redundant prefetches already in cache/mshr dropped (Count)
system.cpu.dcache.prefetcher.pfRemovedDemand            2                       # number of prefetches dropped due to a demand for the same address (Count)
system.cpu.dcache.prefetcher.pfRemovedFull            0                       # number of prefetches dropped due to prefetch queue size (Count)
system.cpu.dcache.prefetcher.pfSpanPage            47                       # number of prefetches that crossed the page (Count)
system.cpu.dcache.prefetcher.pfUsefulSpanPage            0                       # number of prefetches that is useful and crossed the page (Count)
system.cpu.dcache.prefetcher.power_state.pwrStateResidencyTicks::UNDEFINED   7480537000                       # Cumulative time (in ticks) in various power states (Tick)
system.cpu.dcache.tags.tagsInUse           998.672394                       # Average ticks per tags in use ((Tick/Count))
system.cpu.dcache.tags.totalRefs              1922602                       # Total number of references to valid blocks. (Count)
system.cpu.dcache.tags.sampledRefs              70415                       # Sample count of references to valid blocks. (Count)
system.cpu.dcache.tags.avgRefs              27.303870                       # Average number of references to valid blocks. ((Count/Count))
system.cpu.dcache.tags.warmupTick              185000                       # The tick when the warmup percentage was hit. (Tick)
system.cpu.dcache.tags.occupancies::cpu.data   567.303783                       # Average occupied blocks per tick, per requestor ((Count/Tick))
system.cpu.dcache.tags.occupancies::cpu.dcache.prefetcher   431.368611                       # Average occupied blocks per tick, per requestor ((Count/Tick))
system.cpu.dcache.tags.avgOccs::cpu.data     0.554008                       # Average percentage of cache occupancy ((Ratio/Tick))
system.cpu.dcache.tags.avgOccs::cpu.dcache.prefetcher     0.421258                       # Average percentage of cache occupancy ((Ratio/Tick))
system.cpu.dcache.tags.avgOccs::total        0.975266                       # Average percentage of cache occupancy ((Ratio/Tick))
system.cpu.dcache.tags.occupanciesTaskId::1022          512                       # Occupied blocks per task id (Count)
system.cpu.dcache.tags.occupanciesTaskId::1024          512                       # Occupied blocks per task id (Count)
system.cpu.dcache.tags.ageTaskId_1022::0           82                       # Occupied blocks per task id, per block age (Count)
system.cpu.dcache.tags.ageTaskId_1022::1          430                       # Occupied blocks per task id, per block age (Count)
system.cpu.dcache.tags.ageTaskId_1024::0           83                       # Occupied blocks per task id, per block age (Count)
system.cpu.dcache.tags.ageTaskId_1024::1          429                       # Occupied blocks per task id, per block age (Count)
system.cpu.dcache.tags.ratioOccsTaskId::1022     0.500000                       # Ratio of occupied blocks and all blocks, per task id (Ratio)
system.cpu.dcache.tags.ratioOccsTaskId::1024     0.500000                       # Ratio of occupied blocks and all blocks, per task id (Ratio)
system.cpu.dcache.tags.tagAccesses            7622639                       # Number of tag accesses (Count)
system.cpu.dcache.tags.dataAccesses           7622639                       # Number of data accesses (Count)
system.cpu.dcache.tags.power_state.pwrStateResidencyTicks::UNDEFINED   7480537000                       # Cumulative time (in ticks) in various power states (Tick)
system.cpu.decode.idleCycles                   185444                       # Number of cycles decode is idle (Cycle)
system.cpu.decode.blockedCycles               6520237                       # Number of cycles decode is blocked (Cycle)
system.cpu.decode.runCycles                    297526                       # Number of cycles decode is running (Cycle)
system.cpu.decode.unblockCycles                463472                       # Number of cycles decode is unblocking (Cycle)
system.cpu.decode.squashCycles                   2010                       # Number of cycles decode is squashing (Cycle)
system.cpu.decode.branchResolved               108862                       # Number of times decode resolved a branch (Count)
system.cpu.decode.branchMispred                   272                       # Number of times decode detected a branch misprediction (Count)
system.cpu.decode.decodedInsts                6074739                       # Number of instructions handled by decode (Count)
system.cpu.decode.squashedInsts                  1188                       # Number of squashed instructions handled by decode (Count)
system.cpu.fetch.icacheStallCycles             282016                       # Number of cycles fetch is stalled on an Icache miss (Cycle)
system.cpu.fetch.insts                        5078556                       # Number of instructions fetch has processed (Count)
system.cpu.fetch.branches                      119458                       # Number of branches that fetch encountered (Count)
system.cpu.fetch.predictedBranches             114849                       # Number of branches that fetch has predicted taken (Count)
system.cpu.fetch.cycles                       7184228                       # Number of cycles fetch has run and was not squashing or blocked (Cycle)
system.cpu.fetch.squashCycles                    4560                       # Number of cycles fetch has spent squashing (Cycle)
system.cpu.fetch.miscStallCycles                   25                       # Number of cycles fetch has spent waiting on interrupts, or bad addresses, or out of MSHRs (Cycle)
system.cpu.fetch.pendingTrapStallCycles           120                       # Number of stall cycles due to pending traps (Cycle)
system.cpu.fetch.icacheWaitRetryStallCycles           20                       # Number of stall cycles due to full MSHR (Cycle)
system.cpu.fetch.cacheLines                    268425                       # Number of cache lines fetched (Count)
system.cpu.fetch.icacheSquashes                   454                       # Number of outstanding Icache misses that were squashed (Count)
system.cpu.fetch.nisnDist::samples            7468689                       # Number of instructions fetched each cycle (Total) (Count)
system.cpu.fetch.nisnDist::mean              0.822338                       # Number of instructions fetched each cycle (Total) (Count)
system.cpu.fetch.nisnDist::stdev             2.251269                       # Number of instructions fetched each cycle (Total) (Count)
system.cpu.fetch.nisnDist::underflows               0      0.00%      0.00% # Number of instructions fetched each cycle (Total) (Count)
system.cpu.fetch.nisnDist::0                  6454920     86.43%     86.43% # Number of instructions fetched each cycle (Total) (Count)
system.cpu.fetch.nisnDist::1                    42699      0.57%     87.00% # Number of instructions fetched each cycle (Total) (Count)
system.cpu.fetch.nisnDist::2                    74598      1.00%     88.00% # Number of instructions fetched each cycle (Total) (Count)
system.cpu.fetch.nisnDist::3                    86148      1.15%     89.15% # Number of instructions fetched each cycle (Total) (Count)
system.cpu.fetch.nisnDist::4                   108732      1.46%     90.61% # Number of instructions fetched each cycle (Total) (Count)
system.cpu.fetch.nisnDist::5                    56666      0.76%     91.36% # Number of instructions fetched each cycle (Total) (Count)
system.cpu.fetch.nisnDist::6                    74383      1.00%     92.36% # Number of instructions fetched each cycle (Total) (Count)
system.cpu.fetch.nisnDist::7                    37454      0.50%     92.86% # Number of instructions fetched each cycle (Total) (Count)
system.cpu.fetch.nisnDist::8                   533089      7.14%    100.00% # Number of instructions fetched each cycle (Total) (Count)
system.cpu.fetch.nisnDist::overflows                0      0.00%    100.00% # Number of instructions fetched each cycle (Total) (Count)
system.cpu.fetch.nisnDist::min_value                0                       # Number of instructions fetched each cycle (Total) (Count)
system.cpu.fetch.nisnDist::max_value                8                       # Number of instructions fetched each cycle (Total) (Count)
system.cpu.fetch.nisnDist::total              7468689                       # Number of instructions fetched each cycle (Total) (Count)
system.cpu.fetch.branchRate                  0.015969                       # Number of branch fetches per cycle (Ratio)
system.cpu.fetch.rate                        0.678902                       # Number of inst fetches per cycle ((Count/Cycle))
system.cpu.icache.demandHits::cpu.inst         267793                       # number of demand (read+write) hits (Count)
system.cpu.icache.demandHits::total            267793                       # number of demand (read+write) hits (Count)
system.cpu.icache.overallHits::cpu.inst        267793                       # number of overall hits (Count)
system.cpu.icache.overallHits::total           267793                       # number of overall hits (Count)
system.cpu.icache.demandMisses::cpu.inst          632                       # number of demand (read+write) misses (Count)
system.cpu.icache.demandMisses::total             632                       # number of demand (read+write) misses (Count)
system.cpu.icache.overallMisses::cpu.inst          632                       # number of overall misses (Count)
system.cpu.icache.overallMisses::total            632                       # number of overall misses (Count)
system.cpu.icache.demandMissLatency::cpu.inst     47491999                       # number of demand (read+write) miss ticks (Tick)
system.cpu.icache.demandMissLatency::total     47491999                       # number of demand (read+write) miss ticks (Tick)
system.cpu.icache.overallMissLatency::cpu.inst     47491999                       # number of overall miss ticks (Tick)
system.cpu.icache.overallMissLatency::total     47491999                       # number of overall miss ticks (Tick)
system.cpu.icache.demandAccesses::cpu.inst       268425                       # number of demand (read+write) accesses (Count)
system.cpu.icache.demandAccesses::total        268425                       # number of demand (read+write) accesses (Count)
system.cpu.icache.overallAccesses::cpu.inst       268425                       # number of overall (read+write) accesses (Count)
system.cpu.icache.overallAccesses::total       268425                       # number of overall (read+write) accesses (Count)
system.cpu.icache.demandMissRate::cpu.inst     0.002354                       # miss rate for demand accesses (Ratio)
system.cpu.icache.demandMissRate::total      0.002354                       # miss rate for demand accesses (Ratio)
system.cpu.icache.overallMissRate::cpu.inst     0.002354                       # miss rate for overall accesses (Ratio)
system.cpu.icache.overallMissRate::total     0.002354                       # miss rate for overall accesses (Ratio)
system.cpu.icache.demandAvgMissLatency::cpu.inst 75145.568038                       # average overall miss latency in ticks ((Tick/Count))
system.cpu.icache.demandAvgMissLatency::total 75145.568038                       # average overall miss latency in ticks ((Tick/Count))
system.cpu.icache.overallAvgMissLatency::cpu.inst 75145.568038                       # average overall miss latency ((Tick/Count))
system.cpu.icache.overallAvgMissLatency::total 75145.568038                       # average overall miss latency ((Tick/Count))
system.cpu.icache.blockedCycles::no_mshrs          113                       # number of cycles access was blocked (Cycle)
system.cpu.icache.blockedCycles::no_targets            0                       # number of cycles access was blocked (Cycle)
system.cpu.icache.blockedCauses::no_mshrs            6                       # number of times access was blocked (Count)
system.cpu.icache.blockedCauses::no_targets            0                       # number of times access was blocked (Count)
system.cpu.icache.avgBlocked::no_mshrs      18.833333                       # average number of cycles each access was blocked ((Cycle/Count))
system.cpu.icache.avgBlocked::no_targets          nan                       # average number of cycles each access was blocked ((Cycle/Count))
system.cpu.icache.demandMshrHits::cpu.inst          166                       # number of demand (read+write) MSHR hits (Count)
system.cpu.icache.demandMshrHits::total           166                       # number of demand (read+write) MSHR hits (Count)
system.cpu.icache.overallMshrHits::cpu.inst          166                       # number of overall MSHR hits (Count)
system.cpu.icache.overallMshrHits::total          166                       # number of overall MSHR hits (Count)
system.cpu.icache.demandMshrMisses::cpu.inst          466                       # number of demand (read+write) MSHR misses (Count)
system.cpu.icache.demandMshrMisses::total          466                       # number of demand (read+write) MSHR misses (Count)
system.cpu.icache.overallMshrMisses::cpu.inst          466                       # number of overall MSHR misses (Count)
system.cpu.icache.overallMshrMisses::total          466                       # number of overall MSHR misses (Count)
system.cpu.icache.demandMshrMissLatency::cpu.inst     38256999                       # number of demand (read+write) MSHR miss ticks (Tick)
system.cpu.icache.demandMshrMissLatency::total     38256999                       # number of demand (read+write) MSHR miss ticks (Tick)
system.cpu.icache.overallMshrMissLatency::cpu.inst     38256999                       # number of overall MSHR miss ticks (Tick)
system.cpu.icache.overallMshrMissLatency::total     38256999                       # number of overall MSHR miss ticks (Tick)
system.cpu.icache.demandMshrMissRate::cpu.inst     0.001736                       # mshr miss ratio for demand accesses (Ratio)
system.cpu.icache.demandMshrMissRate::total     0.001736                       # mshr miss ratio for demand accesses (Ratio)
system.cpu.icache.overallMshrMissRate::cpu.inst     0.001736                       # mshr miss ratio for overall accesses (Ratio)
system.cpu.icache.overallMshrMissRate::total     0.001736                       # mshr miss ratio for overall accesses (Ratio)
system.cpu.icache.demandAvgMshrMissLatency::cpu.inst 82096.564378                       # average overall mshr miss latency ((Tick/Count))
system.cpu.icache.demandAvgMshrMissLatency::total 82096.564378                       # average overall mshr miss latency ((Tick/Count))
system.cpu.icache.overallAvgMshrMissLatency::cpu.inst 82096.564378                       # average overall mshr miss latency ((Tick/Count))
system.cpu.icache.overallAvgMshrMissLatency::total 82096.564378                       # average overall mshr miss latency ((Tick/Count))
system.cpu.icache.replacements                     10                       # number of replacements (Count)
system.cpu.icache.ReadReq.hits::cpu.inst       267793                       # number of ReadReq hits (Count)
system.cpu.icache.ReadReq.hits::total          267793                       # number of ReadReq hits (Count)
system.cpu.icache.ReadReq.misses::cpu.inst          632                       # number of ReadReq misses (Count)
system.cpu.icache.ReadReq.misses::total           632                       # number of ReadReq misses (Count)
system.cpu.icache.ReadReq.missLatency::cpu.inst     47491999                       # number of ReadReq miss ticks (Tick)
system.cpu.icache.ReadReq.missLatency::total     47491999                       # number of ReadReq miss ticks (Tick)
system.cpu.icache.ReadReq.accesses::cpu.inst       268425                       # number of ReadReq accesses(hits+misses) (Count)
system.cpu.icache.ReadReq.accesses::total       268425                       # number of ReadReq accesses(hits+misses) (Count)
system.cpu.icache.ReadReq.missRate::cpu.inst     0.002354                       # miss rate for ReadReq accesses (Ratio)
system.cpu.icache.ReadReq.missRate::total     0.002354                       # miss rate for ReadReq accesses (Ratio)
system.cpu.icache.ReadReq.avgMissLatency::cpu.inst 75145.568038                       # average ReadReq miss latency ((Tick/Count))
system.cpu.icache.ReadReq.avgMissLatency::total 75145.568038                       # average ReadReq miss latency ((Tick/Count))
system.cpu.icache.ReadReq.mshrHits::cpu.inst          166                       # number of ReadReq MSHR hits (Count)
system.cpu.icache.ReadReq.mshrHits::total          166                       # number of ReadReq MSHR hits (Count)
system.cpu.icache.ReadReq.mshrMisses::cpu.inst          466                       # number of ReadReq MSHR misses (Count)
system.cpu.icache.ReadReq.mshrMisses::total          466                       # number of ReadReq MSHR misses (Count)
system.cpu.icache.ReadReq.mshrMissLatency::cpu.inst     38256999                       # number of ReadReq MSHR miss ticks (Tick)
system.cpu.icache.ReadReq.mshrMissLatency::total     38256999                       # number of ReadReq MSHR miss ticks (Tick)
system.cpu.icache.ReadReq.mshrMissRate::cpu.inst     0.001736                       # mshr miss rate for ReadReq accesses (Ratio)
system.cpu.icache.ReadReq.mshrMissRate::total     0.001736                       # mshr miss rate for ReadReq accesses (Ratio)
system.cpu.icache.ReadReq.avgMshrMissLatency::cpu.inst 82096.564378                       # average ReadReq mshr miss latency ((Tick/Count))
system.cpu.icache.ReadReq.avgMshrMissLatency::total 82096.564378                       # average ReadReq mshr miss latency ((Tick/Count))
system.cpu.icache.power_state.pwrStateResidencyTicks::UNDEFINED   7480537000                       # Cumulative time (in ticks) in various power states (Tick)
system.cpu.icache.prefetcher.demandMshrMisses          466                       # demands not covered by prefetchs (Count)
system.cpu.icache.prefetcher.pfIssued               0                       # number of hwpf issued (Count)
system.cpu.icache.prefetcher.pfUseful               0                       # number of useful prefetch (Count)
system.cpu.icache.prefetcher.pfUsefulButMiss            0                       # number of hit on prefetch but cache block is not in an usable state (Count)
system.cpu.icache.prefetcher.accuracy             nan                       # accuracy of the prefetcher (Count)
system.cpu.icache.prefetcher.coverage               0                       # coverage brought by this prefetcher (Count)
system.cpu.icache.prefetcher.pfHitInCache            0                       # number of prefetches hitting in cache (Count)
system.cpu.icache.prefetcher.pfHitInMSHR            0                       # number of prefetches hitting in a MSHR (Count)
system.cpu.icache.prefetcher.pfHitInWB              0                       # number of prefetches hit in the Write Buffer (Count)
system.cpu.icache.prefetcher.pfLate                 0                       # number of late prefetches (hitting in cache, MSHR or WB) (Count)
system.cpu.icache.prefetcher.pfIdentified            0                       # number of prefetch candidates identified (Count)
system.cpu.icache.prefetcher.pfBufferHit            0                       # number of redundant prefetches already in prefetch queue (Count)
system.cpu.icache.prefetcher.pfInCache              0                       # number of redundant prefetches already in cache/mshr dropped (Count)
system.cpu.icache.prefetcher.pfRemovedDemand            0                       # number of prefetches dropped due to a demand for the same address (Count)
system.cpu.icache.prefetcher.pfRemovedFull            0                       # number of prefetches dropped due to prefetch queue size (Count)
system.cpu.icache.prefetcher.pfSpanPage             0                       # number of prefetches that crossed the page (Count)
system.cpu.icache.prefetcher.pfUsefulSpanPage            0                       # number of prefetches that is useful and crossed the page (Count)
system.cpu.icache.prefetcher.power_state.pwrStateResidencyTicks::UNDEFINED   7480537000                       # Cumulative time (in ticks) in various power states (Tick)
system.cpu.icache.tags.tagsInUse           438.191675                       # Average ticks per tags in use ((Tick/Count))
system.cpu.icache.tags.totalRefs               268259                       # Total number of references to valid blocks. (Count)
system.cpu.icache.tags.sampledRefs                466                       # Sample count of references to valid blocks. (Count)
system.cpu.icache.tags.avgRefs             575.663090                       # Average number of references to valid blocks. ((Count/Count))
system.cpu.icache.tags.warmupTick               88000                       # The tick when the warmup percentage was hit. (Tick)
system.cpu.icache.tags.occupancies::cpu.inst   438.191675                       # Average occupied blocks per tick, per requestor ((Count/Tick))
system.cpu.icache.tags.avgOccs::cpu.inst     0.427922                       # Average percentage of cache occupancy ((Ratio/Tick))
system.cpu.icache.tags.avgOccs::total        0.427922                       # Average percentage of cache occupancy ((Ratio/Tick))
system.cpu.icache.tags.occupanciesTaskId::1024          456                       # Occupied blocks per task id (Count)
system.cpu.icache.tags.ageTaskId_1024::3          456                       # Occupied blocks per task id, per block age (Count)
system.cpu.icache.tags.ratioOccsTaskId::1024     0.445312                       # Ratio of occupied blocks and all blocks, per task id (Ratio)
system.cpu.icache.tags.tagAccesses            1074166                       # Number of tag accesses (Count)
system.cpu.icache.tags.dataAccesses           1074166                       # Number of data accesses (Count)
system.cpu.icache.tags.power_state.pwrStateResidencyTicks::UNDEFINED   7480537000                       # Cumulative time (in ticks) in various power states (Tick)
system.cpu.iew.idleCycles                           0                       # Number of cycles IEW is idle (Cycle)
system.cpu.iew.squashCycles                      2010                       # Number of cycles IEW is squashing (Cycle)
system.cpu.iew.blockCycles                       5083                       # Number of cycles IEW is blocking (Cycle)
system.cpu.iew.unblockCycles                  2457241                       # Number of cycles IEW is unblocking (Cycle)
system.cpu.iew.dispatchedInsts                6057081                       # Number of instructions dispatched to IQ (Count)
system.cpu.iew.dispSquashedInsts                   27                       # Number of squashed instructions skipped by dispatch (Count)
system.cpu.iew.dispLoadInsts                  1319877                       # Number of dispatched load instructions (Count)
system.cpu.iew.dispStoreInsts                  740126                       # Number of dispatched store instructions (Count)
system.cpu.iew.dispNonSpecInsts                    87                       # Number of dispatched non-speculative instructions (Count)
system.cpu.iew.iqFullEvents                         0                       # Number of times the IQ has become full, causing a stall (Count)
system.cpu.iew.lsqFullEvents                  2455578                       # Number of times the LSQ has become full, causing a stall (Count)
system.cpu.iew.memOrderViolationEvents             96                       # Number of memory order violations (Count)
[...]
system.mem_ctrl.dram.numWrites::writebacks        66172                       # Number of write requests responded to by this memory (Count)
system.mem_ctrl.dram.numWrites::total           66172                       # Number of write requests responded to by this memory (Count)
system.mem_ctrl.dram.bwRead::cpu.inst         3978324                       # Total read bandwidth from this memory ((Byte/Second))
system.mem_ctrl.dram.bwRead::cpu.data       303661622                       # Total read bandwidth from this memory ((Byte/Second))
system.mem_ctrl.dram.bwRead::cpu.dcache.prefetcher    291273207                       # Total read bandwidth from this memory ((Byte/Second))
system.mem_ctrl.dram.bwRead::l2cache.prefetcher      7212316                       # Total read bandwidth from this memory ((Byte/Second))
system.mem_ctrl.dram.bwRead::total          606125469                       # Total read bandwidth from this memory ((Byte/Second))
system.mem_ctrl.dram.bwInstRead::cpu.inst      3978324                       # Instruction read bandwidth from this memory ((Byte/Second))
system.mem_ctrl.dram.bwInstRead::total        3978324                       # Instruction read bandwidth from this memory ((Byte/Second))
system.mem_ctrl.dram.bwWrite::writebacks    566136896                       # Write bandwidth from this memory ((Byte/Second))
system.mem_ctrl.dram.bwWrite::total         566136896                       # Write bandwidth from this memory ((Byte/Second))
system.mem_ctrl.dram.bwTotal::writebacks    566136896                       # Total bandwidth to/from this memory ((Byte/Second))
system.mem_ctrl.dram.bwTotal::cpu.inst        3978324                       # Total bandwidth to/from this memory ((Byte/Second))
system.mem_ctrl.dram.bwTotal::cpu.data      303661622                       # Total bandwidth to/from this memory ((Byte/Second))
system.mem_ctrl.dram.bwTotal::cpu.dcache.prefetcher    291273207                       # Total bandwidth to/from this memory ((Byte/Second))
system.mem_ctrl.dram.bwTotal::l2cache.prefetcher      7212316                       # Total bandwidth to/from this memory ((Byte/Second))
system.mem_ctrl.dram.bwTotal::total        1172262366                       # Total bandwidth to/from this memory ((Byte/Second))
system.mem_ctrl.dram.readBursts                 70848                       # Number of DRAM read bursts (Count)
system.mem_ctrl.dram.writeBursts                66147                       # Number of DRAM write bursts (Count)
system.mem_ctrl.dram.perBankRdBursts::0          4452                       # Per bank write bursts (Count)
system.mem_ctrl.dram.perBankRdBursts::1          4375                       # Per bank write bursts (Count)
system.mem_ctrl.dram.perBankRdBursts::2          4370                       # Per bank write bursts (Count)
system.mem_ctrl.dram.perBankRdBursts::3          4460                       # Per bank write bursts (Count)
system.mem_ctrl.dram.perBankRdBursts::4          4547                       # Per bank write bursts (Count)
system.mem_ctrl.dram.perBankRdBursts::5          4454                       # Per bank write bursts (Count)
system.mem_ctrl.dram.perBankRdBursts::6          4440                       # Per bank write bursts (Count)
system.mem_ctrl.dram.perBankRdBursts::7          4403                       # Per bank write bursts (Count)
system.mem_ctrl.dram.perBankRdBursts::8          4339                       # Per bank write bursts (Count)
system.mem_ctrl.dram.perBankRdBursts::9          4472                       # Per bank write bursts (Count)
system.mem_ctrl.dram.perBankRdBursts::10         4463                       # Per bank write bursts (Count)
system.mem_ctrl.dram.perBankRdBursts::11         4416                       # Per bank write bursts (Count)
system.mem_ctrl.dram.perBankRdBursts::12         4310                       # Per bank write bursts (Count)
system.mem_ctrl.dram.perBankRdBursts::13         4442                       # Per bank write bursts (Count)
system.mem_ctrl.dram.perBankRdBursts::14         4440                       # Per bank write bursts (Count)
system.mem_ctrl.dram.perBankRdBursts::15         4465                       # Per bank write bursts (Count)
system.mem_ctrl.dram.perBankWrBursts::0          4096                       # Per bank write bursts (Count)
system.mem_ctrl.dram.perBankWrBursts::1          4096                       # Per bank write bursts (Count)
system.mem_ctrl.dram.perBankWrBursts::2          4096                       # Per bank write bursts (Count)
system.mem_ctrl.dram.perBankWrBursts::3          4197                       # Per bank write bursts (Count)
system.mem_ctrl.dram.perBankWrBursts::4          4266                       # Per bank write bursts (Count)
system.mem_ctrl.dram.perBankWrBursts::5          4182                       # Per bank write bursts (Count)
system.mem_ctrl.dram.perBankWrBursts::6          4178                       # Per bank write bursts (Count)
system.mem_ctrl.dram.perBankWrBursts::7          4087                       # Per bank write bursts (Count)
system.mem_ctrl.dram.perBankWrBursts::8          4070                       # Per bank write bursts (Count)
system.mem_ctrl.dram.perBankWrBursts::9          4156                       # Per bank write bursts (Count)
system.mem_ctrl.dram.perBankWrBursts::10         4109                       # Per bank write bursts (Count)
system.mem_ctrl.dram.perBankWrBursts::11         4117                       # Per bank write bursts (Count)
system.mem_ctrl.dram.perBankWrBursts::12         4039                       # Per bank write bursts (Count)
system.mem_ctrl.dram.perBankWrBursts::13         4153                       # Per bank write bursts (Count)
system.mem_ctrl.dram.perBankWrBursts::14         4159                       # Per bank write bursts (Count)
system.mem_ctrl.dram.perBankWrBursts::15         4146                       # Per bank write bursts (Count)
system.mem_ctrl.dram.totQLat               1617280388                       # Total ticks spent queuing (Tick)
system.mem_ctrl.dram.totBusLat              354240000                       # Total ticks spent in databus transfers (Tick)
system.mem_ctrl.dram.totMemAccLat          2945680388                       # Total ticks spent from burst creation until serviced by the DRAM (Tick)
system.mem_ctrl.dram.avgQLat                 22827.47                       # Average queueing delay per DRAM burst ((Tick/Count))
system.mem_ctrl.dram.avgBusLat                5000.00                       # Average bus latency per DRAM burst ((Tick/Count))
system.mem_ctrl.dram.avgMemAccLat            41577.47                       # Average memory access latency per DRAM burst ((Tick/Count))
system.mem_ctrl.dram.readRowHits                64513                       # Number of row buffer hits during reads (Count)
system.mem_ctrl.dram.writeRowHits               61339                       # Number of row buffer hits during writes (Count)
system.mem_ctrl.dram.readRowHitRate             91.06                       # Row buffer hit rate for reads (Ratio)
system.mem_ctrl.dram.writeRowHitRate            92.73                       # Row buffer hit rate for writes (Ratio)
system.mem_ctrl.dram.bytesPerActivate::samples        11141                       # Bytes accessed per row activation (Byte)
system.mem_ctrl.dram.bytesPerActivate::mean   786.876582                       # Bytes accessed per row activation (Byte)
system.mem_ctrl.dram.bytesPerActivate::gmean   648.174223                       # Bytes accessed per row activation (Byte)
system.mem_ctrl.dram.bytesPerActivate::stdev   339.584704                       # Bytes accessed per row activation (Byte)
system.mem_ctrl.dram.bytesPerActivate::0-127          677      6.08%      6.08% # Bytes accessed per row activation (Byte)
system.mem_ctrl.dram.bytesPerActivate::128-255          621      5.57%     11.65% # Bytes accessed per row activation (Byte)
system.mem_ctrl.dram.bytesPerActivate::256-383          290      2.60%     14.25% # Bytes accessed per row activation (Byte)
system.mem_ctrl.dram.bytesPerActivate::384-511         1518     13.63%     27.88% # Bytes accessed per row activation (Byte)
system.mem_ctrl.dram.bytesPerActivate::512-639          602      5.40%     33.28% # Bytes accessed per row activation (Byte)
system.mem_ctrl.dram.bytesPerActivate::640-767          173      1.55%     34.84% # Bytes accessed per row activation (Byte)
system.mem_ctrl.dram.bytesPerActivate::768-895           39      0.35%     35.19% # Bytes accessed per row activation (Byte)
system.mem_ctrl.dram.bytesPerActivate::896-1023           62      0.56%     35.74% # Bytes accessed per row activation (Byte)
system.mem_ctrl.dram.bytesPerActivate::1024-1151         7159     64.26%    100.00% # Bytes accessed per row activation (Byte)
system.mem_ctrl.dram.bytesPerActivate::total        11141                       # Bytes accessed per row activation (Byte)
system.mem_ctrl.dram.bytesRead                4534272                       # Total bytes read (Byte)
system.mem_ctrl.dram.bytesWritten             4233408                       # Total bytes written (Byte)
system.mem_ctrl.dram.avgRdBW               606.142580                       # Average DRAM read bandwidth in MiBytes/s ((Byte/Second))
system.mem_ctrl.dram.avgWrBW               565.923008                       # Average DRAM write bandwidth in MiBytes/s ((Byte/Second))
system.mem_ctrl.dram.peakBW                  12800.00                       # Theoretical peak bandwidth in MiByte/s ((Byte/Second))
system.mem_ctrl.dram.busUtil                     9.16                       # Data bus utilization in percentage (Ratio)
system.mem_ctrl.dram.busUtilRead                 4.74                       # Data bus utilization in percentage for reads (Ratio)
system.mem_ctrl.dram.busUtilWrite                4.42                       # Data bus utilization in percentage for writes (Ratio)
system.mem_ctrl.dram.pageHitRate                91.87                       # Row buffer hit rate, read and write combined (Ratio)
system.mem_ctrl.dram.power_state.pwrStateResidencyTicks::UNDEFINED   7480537000                       # Cumulative time (in ticks) in various power states (Tick)
system.mem_ctrl.dram.rank0.actEnergy         39984000                       # Energy for activate commands per rank (pJ) (Joule)
system.mem_ctrl.dram.rank0.preEnergy         21252000                       # Energy for precharge commands per rank (pJ) (Joule)
system.mem_ctrl.dram.rank0.readEnergy       253477140                       # Energy for read commands per rank (pJ) (Joule)
system.mem_ctrl.dram.rank0.writeEnergy      173293560                       # Energy for write commands per rank (pJ) (Joule)
system.mem_ctrl.dram.rank0.refreshEnergy 590054400.000000                       # Energy for refresh commands per rank (pJ) (Joule)
system.mem_ctrl.dram.rank0.actBackEnergy   1800545070                       # Energy for active background per rank (pJ) (Joule)
system.mem_ctrl.dram.rank0.preBackEnergy   1356277920                       # Energy for precharge background per rank (pJ) (Joule)
system.mem_ctrl.dram.rank0.actPowerDownEnergy            0                       # Energy for active power-down per rank (pJ) (Joule)
system.mem_ctrl.dram.rank0.prePowerDownEnergy            0                       # Energy for precharge power-down per rank (pJ) (Joule)
system.mem_ctrl.dram.rank0.selfRefreshEnergy            0                       # Energy for self refresh per rank (pJ) (Joule)
system.mem_ctrl.dram.rank0.totalEnergy     4234884090                       # Total energy per rank (pJ) (Joule)
system.mem_ctrl.dram.rank0.averagePower    566.120332                       # Core power per rank (mW) (Watt)
system.mem_ctrl.dram.rank0.totalIdleTime            0                       # Total Idle time Per DRAM Rank (Tick)
system.mem_ctrl.dram.rank0.pwrStateTime::IDLE   3498993435                       # Time in different power states (Tick)
system.mem_ctrl.dram.rank0.pwrStateTime::REF    249600000                       # Time in different power states (Tick)
system.mem_ctrl.dram.rank0.pwrStateTime::SREF            0                       # Time in different power states (Tick)
system.mem_ctrl.dram.rank0.pwrStateTime::PRE_PDN            0                       # Time in different power states (Tick)
system.mem_ctrl.dram.rank0.pwrStateTime::ACT   3731943565                       # Time in different power states (Tick)
system.mem_ctrl.dram.rank0.pwrStateTime::ACT_PDN            0                       # Time in different power states (Tick)
system.mem_ctrl.dram.rank1.actEnergy         39577020                       # Energy for activate commands per rank (pJ) (Joule)
system.mem_ctrl.dram.rank1.preEnergy         21028095                       # Energy for precharge commands per rank (pJ) (Joule)
system.mem_ctrl.dram.rank1.readEnergy       252377580                       # Energy for read commands per rank (pJ) (Joule)
system.mem_ctrl.dram.rank1.writeEnergy      171993780                       # Energy for write commands per rank (pJ) (Joule)
system.mem_ctrl.dram.rank1.refreshEnergy 590054400.000000                       # Energy for refresh commands per rank (pJ) (Joule)
system.mem_ctrl.dram.rank1.actBackEnergy   1805148390                       # Energy for active background per rank (pJ) (Joule)
system.mem_ctrl.dram.rank1.preBackEnergy   1352401440                       # Energy for precharge background per rank (pJ) (Joule)
system.mem_ctrl.dram.rank1.actPowerDownEnergy            0                       # Energy for active power-down per rank (pJ) (Joule)
system.mem_ctrl.dram.rank1.prePowerDownEnergy            0                       # Energy for precharge power-down per rank (pJ) (Joule)
system.mem_ctrl.dram.rank1.selfRefreshEnergy            0                       # Energy for self refresh per rank (pJ) (Joule)
system.mem_ctrl.dram.rank1.totalEnergy     4232580705                       # Total energy per rank (pJ) (Joule)
system.mem_ctrl.dram.rank1.averagePower    565.812415                       # Core power per rank (mW) (Watt)
system.mem_ctrl.dram.rank1.totalIdleTime            0                       # Total Idle time Per DRAM Rank (Tick)
system.mem_ctrl.dram.rank1.pwrStateTime::IDLE   3489927954                       # Time in different power states (Tick)
system.mem_ctrl.dram.rank1.pwrStateTime::REF    249600000                       # Time in different power states (Tick)
system.mem_ctrl.dram.rank1.pwrStateTime::SREF            0                       # Time in different power states (Tick)
system.mem_ctrl.dram.rank1.pwrStateTime::PRE_PDN            0                       # Time in different power states (Tick)
system.mem_ctrl.dram.rank1.pwrStateTime::ACT   3741009046                       # Time in different power states (Tick)
system.mem_ctrl.dram.rank1.pwrStateTime::ACT_PDN            0                       # Time in different power states (Tick)
system.mem_ctrl.power_state.pwrStateResidencyTicks::UNDEFINED   7480537000                       # Cumulative time (in ticks) in various power states (Tick)
system.membus.transDist::ReadResp               35450                       # Transaction distribution (Count)
system.membus.transDist::WritebackDirty         66172                       # Transaction distribution (Count)
system.membus.transDist::CleanEvict               122                       # Transaction distribution (Count)
system.membus.transDist::ReadExReq              35396                       # Transaction distribution (Count)
system.membus.transDist::ReadExResp             35396                       # Transaction distribution (Count)
system.membus.transDist::ReadSharedReq          35452                       # Transaction distribution (Count)
system.membus.pktCount_system.l2cache.mem_side_port::system.mem_ctrl.port       207988                       # Packet count per connected requestor and responder (Count)
system.membus.pktCount_system.l2cache.mem_side_port::total       207988                       # Packet count per connected requestor and responder (Count)
system.membus.pktCount::total                  207988                       # Packet count per connected requestor and responder (Count)
system.membus.pktSize_system.l2cache.mem_side_port::system.mem_ctrl.port      8769152                       # Cumulative packet size per connected requestor and responder (Byte)
system.membus.pktSize_system.l2cache.mem_side_port::total      8769152                       # Cumulative packet size per connected requestor and responder (Byte)
system.membus.pktSize::total                  8769152                       # Cumulative packet size per connected requestor and responder (Byte)
system.membus.snoops                                0                       # Total snoops (Count)
system.membus.snoopTraffic                          0                       # Total snoop traffic (Byte)
system.membus.snoopFanout::samples              70848                       # Request fanout histogram (Count)
system.membus.snoopFanout::mean                     0                       # Request fanout histogram (Count)
system.membus.snoopFanout::stdev                    0                       # Request fanout histogram (Count)
system.membus.snoopFanout::underflows               0      0.00%      0.00% # Request fanout histogram (Count)
system.membus.snoopFanout::0                    70848    100.00%    100.00% # Request fanout histogram (Count)
system.membus.snoopFanout::1                        0      0.00%    100.00% # Request fanout histogram (Count)
system.membus.snoopFanout::overflows                0      0.00%    100.00% # Request fanout histogram (Count)
system.membus.snoopFanout::min_value                0                       # Request fanout histogram (Count)
system.membus.snoopFanout::max_value                0                       # Request fanout histogram (Count)
system.membus.snoopFanout::total                70848                       # Request fanout histogram (Count)
system.membus.power_state.pwrStateResidencyTicks::UNDEFINED   7480537000                       # Cumulative time (in ticks) in various power states (Tick)
system.membus.reqLayer2.occupancy           401880536                       # Layer occupancy (ticks) (Tick)
system.membus.reqLayer2.utilization               0.1                       # Layer utilization (Ratio)
system.membus.respLayer0.occupancy          367421700                       # Layer occupancy (ticks) (Tick)
system.membus.respLayer0.utilization              0.0                       # Layer utilization (Ratio)
system.membus.snoop_filter.totRequests         137142                       # Total number of requests made to the snoop filter. (Count)
system.membus.snoop_filter.hitSingleRequests        66294                       # Number of requests hitting in the snoop filter with a single holder of the requested data. (Count)
system.membus.snoop_filter.hitMultiRequests            0                       # Number of requests hitting in the snoop filter with multiple (>1) holders of the requested data. (Count)
system.membus.snoop_filter.totSnoops                0                       # Total number of snoops made to the snoop filter. (Count)
system.membus.snoop_filter.hitSingleSnoops            0                       # Number of snoops hitting in the snoop filter with a single holder of the requested data. (Count)
system.membus.snoop_filter.hitMultiSnoops            0                       # Number of snoops hitting in the snoop filter with multiple (>1) holders of the requested data. (Count)
system.workload.inst.arm                            0                       # number of arm instructions executed (Count)
system.workload.inst.quiesce                        0                       # number of quiesce instructions executed (Count)

---------- End Simulation Statistics   ----------
