
---------- Begin Simulation Statistics ----------
simSeconds                                   0.396808                       # Number of seconds simulated (Second)
simTicks                                 396808347000                       # Number of ticks simulated (Tick)
finalTick                                396808347000                       # Number of ticks from beginning of simulation (restored from checkpoints and never reset) (Tick)
simFreq                                  1000000000000                       # The number of ticks per simulated second ((Tick/Second))
hostSeconds                                    924.77                       # Real time elapsed on the host (Second)
hostTickRate                                429087961                       # The number of ticks simulated per host second (ticks/s) ((Tick/Second))
hostMemory                                    8529804                       # Number of bytes of host memory used (Byte)
simInsts                                     50000000                       # Number of instructions simulated (Count)
simOps                                       95981340                       # Number of ops (including micro ops) simulated (Count)
hostInstRate                                    54067                       # Simulator instruction rate (inst/s) ((Count/Second))
hostOpRate                                     103789                       # Simulator op (including micro ops) rate (op/s) ((Count/Second))
system.clk_domain.clock                          1000                       # Clock period in ticks (Tick)
system.clk_domain.voltage_domain.voltage            1                       # Voltage in Volts (Volt)
system.cpu.numCycles                        396808357                       # Number of cpu cycles simulated (Cycle)
system.cpu.numWorkItemsStarted                      0                       # Number of work items this cpu started (Count)
system.cpu.numWorkItemsCompleted                    0                       # Number of work items this cpu completed (Count)
system.cpu.instsAdded                       100807283                       # Number of instructions added to the IQ (excludes non-spec) (Count)
system.cpu.nonSpecInstsAdded                      688                       # Number of non-speculative instructions added to the IQ (Count)
system.cpu.instsIssued                      100739923                       # Number of instructions issued (Count)
system.cpu.squashedInstsIssued                     75                       # Number of squashed instructions issued (Count)
system.cpu.squashedInstsExamined              4826623                       # Number of squashed instructions iterated over during squash; mainly for profiling (Count)
system.cpu.squashedOperandsExamined          11579953                       # Number of squashed operands that are examined and possibly removed from graph (Count)
system.cpu.squashedNonSpecRemoved                 640                       # Number of squashed non-spec instructions that were removed (Count)
system.cpu.numIssuedDist::samples           396785408                       # Number of insts issued each cycle (Count)
system.cpu.numIssuedDist::mean               0.253890                       # Number of insts issued each cycle (Count)
system.cpu.numIssuedDist::stdev              0.741525                       # Number of insts issued each cycle (Count)
system.cpu.numIssuedDist::underflows                0      0.00%      0.00% # Number of insts issued each cycle (Count)
system.cpu.numIssuedDist::0                 330573906     83.31%     83.31% # Number of insts issued each cycle (Count)
system.cpu.numIssuedDist::1                  51011785     12.86%     96.17% # Number of insts issued each cycle (Count)
system.cpu.numIssuedDist::2                   5369644      1.35%     97.52% # Number of insts issued each cycle (Count)
system.cpu.numIssuedDist::3                   4284475      1.08%     98.60% # Number of insts issued each cycle (Count)
system.cpu.numIssuedDist::4                   4087807      1.03%     99.63% # Number of insts issued each cycle (Count)
system.cpu.numIssuedDist::5                    264941      0.07%     99.70% # Number of insts issued each cycle (Count)
system.cpu.numIssuedDist::6                    290560      0.07%     99.77% # Number of insts issued each cycle (Count)
system.cpu.numIssuedDist::7                    502188      0.13%     99.90% # Number of insts issued each cycle (Count)
system.cpu.numIssuedDist::8                    400102      0.10%    100.00% # Number of insts issued each cycle (Count)
system.cpu.numIssuedDist::overflows                 0      0.00%    100.00% # Number of insts issued each cycle (Count)
system.cpu.numIssuedDist::min_value                 0                       # Number of insts issued each cycle (Count)
system.cpu.numIssuedDist::max_value                 8                       # Number of insts issued each cycle (Count)
system.cpu.numIssuedDist::total             396785408                       # Number of insts issued each cycle (Count)
system.cpu.statFuBusy::No_OpClass                   0      0.00%      0.00% # attempts to use FU when none available (Count)
system.cpu.statFuBusy::IntAlu                       0      0.00%      0.00% # attempts to use FU when none available (Count)
system.cpu.statFuBusy::IntMult                      0      0.00%      0.00% # attempts to use FU when none available (Count)
system.cpu.statFuBusy::IntDiv                       0      0.00%      0.00% # attempts to use FU when none available (Count)
system.cpu.statFuBusy::FloatAdd                     0      0.00%      0.00% # attempts to use FU when none available (Count)
system.cpu.statFuBusy::FloatCmp                     0      0.00%      0.00% # attempts to use FU when none available (Count)
system.cpu.statFuBusy::FloatCvt                     0      0.00%      0.00% # attempts to use FU when none available (Count)
system.cpu.statFuBusy::FloatMult                    0      0.00%      0.00% # attempts to use FU when none available (Count)
system.cpu.statFuBusy::FloatMultAcc                 0      0.00%      0.00% # attempts to use FU when none available (Count)
system.cpu.statFuBusy::FloatDiv                     0      0.00%      0.00% # attempts to use FU when none available (Count)
system.cpu.statFuBusy::FloatMisc                    0      0.00%      0.00% # attempts to use FU when none available (Count)
system.cpu.statFuBusy::FloatSqrt                    0      0.00%      0.00% # attempts to use FU when none available (Count)
system.cpu.statFuBusy::SimdAdd                      0      0.00%      0.00% # attempts to use FU when none available (Count)
system.cpu.statFuBusy::SimdAddAcc                   0      0.00%      0.00% # attempts to use FU when none available (Count)
system.cpu.statFuBusy::SimdAlu                     16      0.00%      0.00% # attempts to use FU when none available (Count)
system.cpu.statFuBusy::SimdCmp                      0      0.00%      0.00% # attempts to use FU when none available (Count)
system.cpu.statFuBusy::SimdCvt                      3      0.00%      0.00% # attempts to use FU when none available (Count)
system.cpu.statFuBusy::SimdMisc                     0      0.00%      0.00% # attempts to use FU when none available (Count)
system.cpu.statFuBusy::SimdMult                     0      0.00%      0.00% # attempts to use FU when none available (Count)
system.cpu.statFuBusy::SimdMultAcc                  0      0.00%      0.00% # attempts to use FU when none available (Count)
system.cpu.statFuBusy::SimdShift                    0      0.00%      0.00% # attempts to use FU when none available (Count)
system.cpu.statFuBusy::SimdShiftAcc                 0      0.00%      0.00% # attempts to use FU when none available (Count)
system.cpu.statFuBusy::SimdDiv                      0      0.00%      0.00% # attempts to use FU when none available (Count)
system.cpu.statFuBusy::SimdSqrt                     0      0.00%      0.00% # attempts to use FU when none available (Count)
system.cpu.statFuBusy::SimdFloatAdd                 0      0.00%      0.00% # attempts to use FU when none available (Count)
system.cpu.statFuBusy::SimdFloatAlu                 0      0.00%      0.00% # attempts to use FU when none available (Count)
system.cpu.statFuBusy::SimdFloatCmp                 0      0.00%      0.00% # attempts to use FU when none available (Count)
system.cpu.statFuBusy::SimdFloatCvt                 0      0.00%      0.00% # attempts to use FU when none available (Count)
system.cpu.statFuBusy::SimdFloatDiv                 0      0.00%      0.00% # attempts to use FU when none available (Count)
system.cpu.statFuBusy::SimdFloatMisc                0      0.00%      0.00% # attempts to use FU when none available (Count)
system.cpu.statFuBusy::SimdFloatMult                0      0.00%      0.00% # attempts to use FU when none available (Count)
system.cpu.statFuBusy::SimdFloatMultAcc             0      0.00%      0.00% # attempts to use FU when none available (Count)
system.cpu.statFuBusy::SimdFloatSqrt                0      0.00%      0.00% # attempts to use FU when none available (Count)
system.cpu.statFuBusy::SimdReduceAdd                0      0.00%      0.00% # attempts to use FU when none available (Count)
system.cpu.statFuBusy::SimdReduceAlu                0      0.00%      0.00% # attempts to use FU when none available (Count)
system.cpu.statFuBusy::SimdReduceCmp                0      0.00%      0.00% # attempts to use FU when none available (Count)
system.cpu.statFuBusy::SimdFloatReduceAdd            0      0.00%      0.00% # attempts to use FU when none available (Count)
system.cpu.statFuBusy::SimdFloatReduceCmp            0      0.00%      0.00% # attempts to use FU when none available (Count)
system.cpu.statFuBusy::SimdAes                      0      0.00%      0.00% # attempts to use FU when none available (Count)
system.cpu.statFuBusy::SimdAesMix                   0      0.00%      0.00% # attempts to use FU when none available (Count)
system.cpu.statFuBusy::SimdSha1Hash                 0      0.00%      0.00% # attempts to use FU when none available (Count)
system.cpu.statFuBusy::SimdSha1Hash2                0      0.00%      0.00% # attempts to use FU when none available (Count)
system.cpu.statFuBusy::SimdSha256Hash               0      0.00%      0.00% # attempts to use FU when none available (Count)
system.cpu.statFuBusy::SimdSha256Hash2              0      0.00%      0.00% # attempts to use FU when none available (Count)
system.cpu.statFuBusy::SimdShaSigma2                0      0.00%      0.00% # attempts to use FU when none available (Count)
system.cpu.statFuBusy::SimdShaSigma3                0      0.00%      0.00% # attempts to use FU when none available (Count)
system.cpu.statFuBusy::SimdPredAlu                  0      0.00%      0.00% # attempts to use FU when none available (Count)
system.cpu.statFuBusy::MemRead                  29883      4.08%      4.08% # attempts to use FU when none available (Count)
system.cpu.statFuBusy::MemWrite                   328      0.04%      4.13% # attempts to use FU when none available (Count)
system.cpu.statFuBusy::FloatMemRead                13      0.00%      4.13% # attempts to use FU when none available (Count)
system.cpu.statFuBusy::FloatMemWrite           701811     95.87%    100.00% # attempts to use FU when none available (Count)
system.cpu.statFuBusy::IprAccess                    0      0.00%    100.00% # attempts to use FU when none available (Count)
system.cpu.statFuBusy::InstPrefetch                 0      0.00%    100.00% # attempts to use FU when none available (Count)
system.cpu.statIssuedInstType_0::No_OpClass          913      0.00%      0.00% # Number of instructions issued per FU type, per thread (Count)
system.cpu.statIssuedInstType_0::IntAlu      44522059     44.20%     44.20% # Number of instructions issued per FU type, per thread (Count)
system.cpu.statIssuedInstType_0::IntMult          743      0.00%     44.20% # Number of instructions issued per FU type, per thread (Count)
system.cpu.statIssuedInstType_0::IntDiv            26      0.00%     44.20% # Number of instructions issued per FU type, per thread (Count)
system.cpu.statIssuedInstType_0::FloatAdd          321      0.00%     44.20% # Number of instructions issued per FU type, per thread (Count)
system.cpu.statIssuedInstType_0::FloatCmp            0      0.00%     44.20% # Number of instructions issued per FU type, per thread (Count)
system.cpu.statIssuedInstType_0::FloatCvt            0      0.00%     44.20% # Number of instructions issued per FU type, per thread (Count)
system.cpu.statIssuedInstType_0::FloatMult            0      0.00%     44.20% # Number of instructions issued per FU type, per thread (Count)
system.cpu.statIssuedInstType_0::FloatMultAcc            0      0.00%     44.20% # Number of instructions issued per FU type, per thread (Count)
system.cpu.statIssuedInstType_0::FloatDiv            0      0.00%     44.20% # Number of instructions issued per FU type, per thread (Count)
system.cpu.statIssuedInstType_0::FloatMisc            0      0.00%     44.20% # Number of instructions issued per FU type, per thread (Count)
system.cpu.statIssuedInstType_0::FloatSqrt            0      0.00%     44.20% # Number of instructions issued per FU type, per thread (Count)
system.cpu.statIssuedInstType_0::SimdAdd            0      0.00%     44.20% # Number of instructions issued per FU type, per thread (Count)
system.cpu.statIssuedInstType_0::SimdAddAcc            0      0.00%     44.20% # Number of instructions issued per FU type, per thread (Count)
system.cpu.statIssuedInstType_0::SimdAlu          887      0.00%     44.20% # Number of instructions issued per FU type, per thread (Count)
system.cpu.statIssuedInstType_0::SimdCmp           12      0.00%     44.20% # Number of instructions issued per FU type, per thread (Count)
system.cpu.statIssuedInstType_0::SimdCvt          823      0.00%     44.20% # Number of instructions issued per FU type, per thread (Count)
system.cpu.statIssuedInstType_0::SimdMisc         2130      0.00%     44.20% # Number of instructions issued per FU type, per thread (Count)
system.cpu.statIssuedInstType_0::SimdMult            0      0.00%     44.20% # Number of instructions issued per FU type, per thread (Count)
system.cpu.statIssuedInstType_0::SimdMultAcc            0      0.00%     44.20% # Number of instructions issued per FU type, per thread (Count)
system.cpu.statIssuedInstType_0::SimdShift            0      0.00%     44.20% # Number of instructions issued per FU type, per thread (Count)
system.cpu.statIssuedInstType_0::SimdShiftAcc            0      0.00%     44.20% # Number of instructions issued per FU type, per thread (Count)
system.cpu.statIssuedInstType_0::SimdDiv            0      0.00%     44.20% # Number of instructions issued per FU type, per thread (Count)
system.cpu.statIssuedInstType_0::SimdSqrt            0      0.00%     44.20% # Number of instructions issued per FU type, per thread (Count)
system.cpu.statIssuedInstType_0::SimdFloatAdd            0      0.00%     44.20% # Number of instructions issued per FU type, per thread (Count)
system.cpu.statIssuedInstType_0::SimdFloatAlu            0      0.00%     44.20% # Number of instructions issued per FU type, per thread (Count)
system.cpu.statIssuedInstType_0::SimdFloatCmp            0      0.00%     44.20% # Number of instructions issued per FU type, per thread (Count)
system.cpu.statIssuedInstType_0::SimdFloatCvt            1      0.00%     44.20% # Number of instructions issued per FU type, per thread (Count)
system.cpu.statIssuedInstType_0::SimdFloatDiv            0      0.00%     44.20% # Number of instructions issued per FU type, per thread (Count)
system.cpu.statIssuedInstType_0::SimdFloatMisc            0      0.00%     44.20% # Number of instructions issued per FU type, per thread (Count)
system.cpu.statIssuedInstType_0::SimdFloatMult            0      0.00%     44.20% # Number of instructions issued per FU type, per thread (Count)
system.cpu.statIssuedInstType_0::SimdFloatMultAcc            0      0.00%     44.20% # Number of instructions issued per FU type, per thread (Count)
system.cpu.statIssuedInstType_0::SimdFloatSqrt            0      0.00%     44.20% # Number of instructions issued per FU type, per thread (Count)
system.cpu.statIssuedInstType_0::SimdReduceAdd            0      0.00%     44.20% # Number of instructions issued per FU type, per thread (Count)
system.cpu.statIssuedInstType_0::SimdReduceAlu            0      0.00%     44.20% # Number of instructions issued per FU type, per thread (Count)
system.cpu.statIssuedInstType_0::SimdReduceCmp            0      0.00%     44.20% # Number of instructions issued per FU type, per thread (Count)
system.cpu.statIssuedInstType_0::SimdFloatReduceAdd            0      0.00%     44.20% # Number of instructions issued per FU type, per thread (Count)
system.cpu.statIssuedInstType_0::SimdFloatReduceCmp            0      0.00%     44.20% # Number of instructions issued per FU type, per thread (Count)
system.cpu.statIssuedInstType_0::SimdAes            0      0.00%     44.20% # Number of instructions issued per FU type, per thread (Count)
system.cpu.statIssuedInstType_0::SimdAesMix            0      0.00%     44.20% # Number of instructions issued per FU type, per thread (Count)
system.cpu.statIssuedInstType_0::SimdSha1Hash            0      0.00%     44.20% # Number of instructions issued per FU type, per thread (Count)
system.cpu.statIssuedInstType_0::SimdSha1Hash2            0      0.00%     44.20% # Number of instructions issued per FU type, per thread (Count)
system.cpu.statIssuedInstType_0::SimdSha256Hash            0      0.00%     44.20% # Number of instructions issued per FU type, per thread (Count)
system.cpu.statIssuedInstType_0::SimdSha256Hash2            0      0.00%     44.20% # Number of instructions issued per FU type, per thread (Count)
system.cpu.statIssuedInstType_0::SimdShaSigma2            0      0.00%     44.20% # Number of instructions issued per FU type, per thread (Count)
system.cpu.statIssuedInstType_0::SimdShaSigma3            0      0.00%     44.20% # Number of instructions issued per FU type, per thread (Count)
system.cpu.statIssuedInstType_0::SimdPredAlu            0      0.00%     44.20% # Number of instructions issued per FU type, per thread (Count)
system.cpu.statIssuedInstType_0::MemRead      1367933      1.36%     45.56% # Number of instructions issued per FU type, per thread (Count)
system.cpu.statIssuedInstType_0::MemWrite       204784      0.20%     45.76% # Number of instructions issued per FU type, per thread (Count)
system.cpu.statIssuedInstType_0::FloatMemRead          515      0.00%     45.76% # Number of instructions issued per FU type, per thread (Count)
system.cpu.statIssuedInstType_0::FloatMemWrite     54638776     54.24%    100.00% # Number of instructions issued per FU type, per thread (Count)
system.cpu.statIssuedInstType_0::IprAccess            0      0.00%    100.00% # Number of instructions issued per FU type, per thread (Count)
system.cpu.statIssuedInstType_0::InstPrefetch            0      0.00%    100.00% # Number of instructions issued per FU type, per thread (Count)
system.cpu.statIssuedInstType_0::total      100739923                       # Number of instructions issued per FU type, per thread (Count)
system.cpu.issueRate                         0.253876                       # Inst issue rate ((Count/Cycle))
system.cpu.fuBusy                              732054                       # FU busy when requested (Count)
system.cpu.fuBusyRate                        0.007267                       # FU busy rate (busy events/executed inst) ((Count/Count))
system.cpu.intInstQueueReads                489007459                       # Number of integer instruction queue reads (Count)
system.cpu.intInstQueueWrites                48172268                       # Number of integer instruction queue writes (Count)
system.cpu.intInstQueueWakeupAccesses        46083098                       # Number of integer instruction queue wakeup accesses (Count)
system.cpu.fpInstQueueReads                 109989922                       # Number of floating instruction queue reads (Count)
system.cpu.fpInstQueueWrites                 57462861                       # Number of floating instruction queue writes (Count)
system.cpu.fpInstQueueWakeupAccesses         51834258                       # Number of floating instruction queue wakeup accesses (Count)
system.cpu.vecInstQueueReads                        0                       # Number of vector instruction queue reads (Count)
system.cpu.vecInstQueueWrites                       0                       # Number of vector instruction queue writes (Count)
system.cpu.vecInstQueueWakeupAccesses               0                       # Number of vector instruction queue wakeup accesses (Count)
system.cpu.intAluAccesses                    46125186                       # Number of integer alu accesses (Count)
system.cpu.fpAluAccesses                     55345878                       # Number of floating point alu accesses (Count)
system.cpu.vecAluAccesses                           0                       # Number of vector alu accesses (Count)
system.cpu.numInsts                         100729362                       # Number of executed instructions (Count)
system.cpu.numLoadInsts                       1363959                       # Number of load instructions executed (Count)
system.cpu.numSquashedInsts                     10559                       # Number of squashed instructions skipped in execute (Count)
system.cpu.numSwp                                   0                       # Number of swp insts executed (Count)
system.cpu.numNop                                   0                       # Number of nop insts executed (Count)
system.cpu.numRefs                           56205986                       # Number of memory reference insts executed (Count)
system.cpu.numBranches                        6858169                       # Number of branches executed (Count)
system.cpu.numStoreInsts                     54842027                       # Number of stores executed (Count)
system.cpu.numRate                           0.253849                       # Inst execution rate ((Count/Cycle))
system.cpu.timesIdled                             474                       # Number of times that the entire CPU went into an idle state and unscheduled itself (Count)
system.cpu.idleCycles                           22949                       # Total number of cycles that the CPU has spent unscheduled due to idling (Cycle)
system.cpu.committedInsts                    50000000                       # Number of Instructions Simulated (Count)
system.cpu.committedOps                      95981340                       # Number of Ops (including micro ops) Simulated (Count)
system.cpu.cpi                               7.936167                       # CPI: Cycles Per Instruction ((Cycle/Count))
system.cpu.totalCpi                          7.936167                       # CPI: Total CPI of All Threads ((Cycle/Count))
system.cpu.ipc                               0.126005                       # IPC: Instructions Per Cycle ((Count/Cycle))
system.cpu.totalIpc                          0.126005                       # IPC: Total IPC of All Threads ((Count/Cycle))
system.cpu.intRegfileReads                  104426013                       # Number of integer regfile reads (Count)
system.cpu.intRegfileWrites                  32069868                       # Number of integer regfile writes (Count)
system.cpu.fpRegfileReads                    54647903                       # Number of floating regfile reads (Count)
system.cpu.fpRegfileWrites                       4707                       # Number of floating regfile writes (Count)
system.cpu.ccRegfileReads                    36055946                       # number of cc regfile reads (Count)
system.cpu.ccRegfileWrites                   30554115                       # number of cc regfile writes (Count)
system.cpu.miscRegfileReads                  69940978                       # number of misc regfile reads (Count)
system.cpu.MemDepUnit__0.insertedLoads        1381170                       # Number of loads inserted to the mem dependence unit. (Count)
system.cpu.MemDepUnit__0.insertedStores      54853318                       # Number of stores inserted to the mem dependence unit. (Count)
system.cpu.MemDepUnit__0.conflictingLoads       217150                       # Number of conflicting loads. (Count)
system.cpu.MemDepUnit__0.conflictingStores        55467                       # Number of conflicting stores. (Count)
system.cpu.MemDepUnit__1.insertedLoads              0                       # Number of loads inserted to the mem dependence unit. (Count)
system.cpu.MemDepUnit__1.insertedStores             0                       # Number of stores inserted to the mem dependence unit. (Count)
system.cpu.MemDepUnit__1.conflictingLoads            0                       # Number of conflicting loads. (Count)
system.cpu.MemDepUnit__1.conflictingStores            0                       # Number of conflicting stores. (Count)
system.cpu.MemDepUnit__2.insertedLoads              0                       # Number of loads inserted to the mem dependence unit. (Count)
system.cpu.MemDepUnit__2.insertedStores             0                       # Number of stores inserted to the mem dependence unit. (Count)
system.cpu.MemDepUnit__2.conflictingLoads            0                       # Number of conflicting loads. (Count)
system.cpu.MemDepUnit__2.conflictingStores            0                       # Number of conflicting stores. (Count)
system.cpu.MemDepUnit__3.insertedLoads              0                       # Number of loads inserted to the mem dependence unit. (Count)
system.cpu.MemDepUnit__3.insertedStores             0                       # Number of stores inserted to the mem dependence unit. (Count)
system.cpu.MemDepUnit__3.conflictingLoads            0                       # Number of conflicting loads. (Count)
system.cpu.MemDepUnit__3.conflictingStores            0                       # Number of conflicting stores. (Count)
system.cpu.branchPred.lookups                 7049646                       # Number of BP lookups (Count)
system.cpu.branchPred.condPredicted           7031815                       # Number of conditional branches predicted (Count)
system.cpu.branchPred.condIncorrect              3519                       # Number of conditional branches incorrect (Count)
system.cpu.branchPred.BTBLookups              7023769                       # Number of BTB lookups (Count)
system.cpu.branchPred.BTBHits                 7021104                       # Number of BTB hits (Count)
system.cpu.branchPred.BTBHitRatio            0.999621                       # BTB Hit Ratio (Ratio)
system.cpu.branchPred.RASUsed                    5618                       # Number of times the RAS was used to get a target. (Count)
system.cpu.branchPred.RASIncorrect                  6                       # Number of incorrect RAS predictions. (Count)
system.cpu.branchPred.indirectLookups            1100                       # Number of indirect predictor lookups. (Count)
system.cpu.branchPred.indirectHits                657                       # Number of indirect target hits. (Count)
system.cpu.branchPred.indirectMisses              443                       # Number of indirect misses. (Count)
system.cpu.branchPred.indirectMispredicted          172                       # Number of mispredicted indirect branches. (Count)
system.cpu.commit.commitSquashedInsts         4820858                       # The number of squashed insts skipped by commit (Count)
system.cpu.commit.commitNonSpecStalls              48                       # The number of times commit has been forced to stall to communicate backwards (Count)
system.cpu.commit.branchMispredicts              2651                       # The number of times a branch was mispredicted (Count)
system.cpu.commit.numCommittedDist::samples    396146337                       # Number of insts commited each cycle (Count)
system.cpu.commit.numCommittedDist::mean     0.242288                       # Number of insts commited each cycle (Count)
system.cpu.commit.numCommittedDist::stdev     0.760986                       # Number of insts commited each cycle (Count)
system.cpu.commit.numCommittedDist::underflows            0      0.00%      0.00% # Number of insts commited each cycle (Count)
system.cpu.commit.numCommittedDist::0       336218640     84.87%     84.87% # Number of insts commited each cycle (Count)
system.cpu.commit.numCommittedDist::1        44968087     11.35%     96.22% # Number of insts commited each cycle (Count)
system.cpu.commit.numCommittedDist::2         1764806      0.45%     96.67% # Number of insts commited each cycle (Count)
system.cpu.commit.numCommittedDist::3        11092371      2.80%     99.47% # Number of insts commited each cycle (Count)
system.cpu.commit.numCommittedDist::4          345621      0.09%     99.56% # Number of insts commited each cycle (Count)
system.cpu.commit.numCommittedDist::5           24295      0.01%     99.56% # Number of insts commited each cycle (Count)
system.cpu.commit.numCommittedDist::6          574985      0.15%     99.71% # Number of insts commited each cycle (Count)
system.cpu.commit.numCommittedDist::7            7597      0.00%     99.71% # Number of insts commited each cycle (Count)
system.cpu.commit.numCommittedDist::8         1149935      0.29%    100.00% # Number of insts commited each cycle (Count)
system.cpu.commit.numCommittedDist::overflows            0      0.00%    100.00% # Number of insts commited each cycle (Count)
system.cpu.commit.numCommittedDist::min_value            0                       # Number of insts commited each cycle (Count)
system.cpu.commit.numCommittedDist::max_value            8                       # Number of insts commited each cycle (Count)
system.cpu.commit.numCommittedDist::total    396146337                       # Number of insts commited each cycle (Count)
system.cpu.commit.instsCommitted             50000000                       # Number of instructions committed (Count)
system.cpu.commit.opsCommitted               95981340                       # Number of ops (including micro ops) committed (Count)
system.cpu.commit.memRefs                    53378545                       # Number of memory references committed (Count)
system.cpu.commit.loads                       1350127                       # Number of loads committed (Count)
system.cpu.commit.amos                              0                       # Number of atomic instructions committed (Count)
system.cpu.commit.membars                          32                       # Number of memory barriers committed (Count)
system.cpu.commit.branches                    6543968                       # Number of branches committed (Count)
system.cpu.commit.vectorInstructions                0                       # Number of committed Vector instructions. (Count)
system.cpu.commit.floating                   51833437                       # Number of committed floating point instructions. (Count)
system.cpu.commit.integer                    95975912                       # Number of committed integer instructions. (Count)
system.cpu.commit.functionCalls                  3805                       # Number of function calls committed. (Count)
system.cpu.commit.committedInstType_0::No_OpClass          552      0.00%      0.00% # Class of committed instruction (Count)
system.cpu.commit.committedInstType_0::IntAlu     42597873     44.38%     44.38% # Class of committed instruction (Count)
system.cpu.commit.committedInstType_0::IntMult          725      0.00%     44.38% # Class of committed instruction (Count)
system.cpu.commit.committedInstType_0::IntDiv           21      0.00%     44.38% # Class of committed instruction (Count)
system.cpu.commit.committedInstType_0::FloatAdd          199      0.00%     44.38% # Class of committed instruction (Count)
system.cpu.commit.committedInstType_0::FloatCmp            0      0.00%     44.38% # Class of committed instruction (Count)
system.cpu.commit.committedInstType_0::FloatCvt            0      0.00%     44.38% # Class of committed instruction (Count)
system.cpu.commit.committedInstType_0::FloatMult            0      0.00%     44.38% # Class of committed instruction (Count)
system.cpu.commit.committedInstType_0::FloatMultAcc            0      0.00%     44.38% # Class of committed instruction (Count)
system.cpu.commit.committedInstType_0::FloatDiv            0      0.00%     44.38% # Class of committed instruction (Count)
system.cpu.commit.committedInstType_0::FloatMisc            0      0.00%     44.38% # Class of committed instruction (Count)
system.cpu.commit.committedInstType_0::FloatSqrt            0      0.00%     44.38% # Class of committed instruction (Count)
system.cpu.commit.committedInstType_0::SimdAdd            0      0.00%     44.38% # Class of committed instruction (Count)
system.cpu.commit.committedInstType_0::SimdAddAcc            0      0.00%     44.38% # Class of committed instruction (Count)
system.cpu.commit.committedInstType_0::SimdAlu          786      0.00%     44.38% # Class of committed instruction (Count)
system.cpu.commit.committedInstType_0::SimdCmp           12      0.00%     44.38% # Class of committed instruction (Count)
system.cpu.commit.committedInstType_0::SimdCvt          788      0.00%     44.38% # Class of committed instruction (Count)
system.cpu.commit.committedInstType_0::SimdMisc         1839      0.00%     44.39% # Class of committed instruction (Count)
system.cpu.commit.committedInstType_0::SimdMult            0      0.00%     44.39% # Class of committed instruction (Count)
system.cpu.commit.committedInstType_0::SimdMultAcc            0      0.00%     44.39% # Class of committed instruction (Count)
system.cpu.commit.committedInstType_0::SimdShift            0      0.00%     44.39% # Class of committed instruction (Count)
system.cpu.commit.committedInstType_0::SimdShiftAcc            0      0.00%     44.39% # Class of committed instruction (Count)
system.cpu.commit.committedInstType_0::SimdDiv            0      0.00%     44.39% # Class of committed instruction (Count)
system.cpu.commit.committedInstType_0::SimdSqrt            0      0.00%     44.39% # Class of committed instruction (Count)
system.cpu.commit.committedInstType_0::SimdFloatAdd            0      0.00%     44.39% # Class of committed instruction (Count)
system.cpu.commit.committedInstType_0::SimdFloatAlu            0      0.00%     44.39% # Class of committed instruction (Count)
system.cpu.commit.committedInstType_0::SimdFloatCmp            0      0.00%     44.39% # Class of committed instruction (Count)
system.cpu.commit.committedInstType_0::SimdFloatCvt            0      0.00%     44.39% # Class of committed instruction (Count)
system.cpu.commit.committedInstType_0::SimdFloatDiv            0      0.00%     44.39% # Class of committed instruction (Count)
system.cpu.commit.committedInstType_0::SimdFloatMisc            0      0.00%     44.39% # Class of committed instruction (Count)
system.cpu.commit.committedInstType_0::SimdFloatMult            0      0.00%     44.39% # Class of committed instruction (Count)
system.cpu.commit.committedInstType_0::SimdFloatMultAcc            0      0.00%     44.39% # Class of committed instruction (Count)
system.cpu.commit.committedInstType_0::SimdFloatSqrt            0      0.00%     44.39% # Class of committed instruction (Count)
system.cpu.commit.committedInstType_0::SimdReduceAdd            0      0.00%     44.39% # Class of committed instruction (Count)
system.cpu.commit.committedInstType_0::SimdReduceAlu            0      0.00%     44.39% # Class of committed instruction (Count)
system.cpu.commit.committedInstType_0::SimdReduceCmp            0      0.00%     44.39% # Class of committed instruction (Count)
system.cpu.commit.committedInstType_0::SimdFloatReduceAdd            0      0.00%     44.39% # Class of committed instruction (Count)
system.cpu.commit.committedInstType_0::SimdFloatReduceCmp            0      0.00%     44.39% # Class of committed instruction (Count)
system.cpu.commit.committedInstType_0::SimdAes            0      0.00%     44.39% # Class of committed instruction (Count)
system.cpu.commit.committedInstType_0::SimdAesMix            0      0.00%     44.39% # Class of committed instruction (Count)
system.cpu.commit.committedInstType_0::SimdSha1Hash            0      0.00%     44.39% # Class of committed instruction (Count)
system.cpu.commit.committedInstType_0::SimdSha1Hash2            0      0.00%     44.39% # Class of committed instruction (Count)
system.cpu.commit.committedInstType_0::SimdSha256Hash            0      0.00%     44.39% # Class of committed instruction (Count)
system.cpu.commit.committedInstType_0::SimdSha256Hash2            0      0.00%     44.39% # Class of committed instruction (Count)
system.cpu.commit.committedInstType_0::SimdShaSigma2            0      0.00%     44.39% # Class of committed instruction (Count)
system.cpu.commit.committedInstType_0::SimdShaSigma3            0      0.00%     44.39% # Class of committed instruction (Count)
system.cpu.commit.committedInstType_0::SimdPredAlu            0      0.00%     44.39% # Class of committed instruction (Count)
system.cpu.commit.committedInstType_0::MemRead      1349679      1.41%     45.79% # Class of committed instruction (Count)
system.cpu.commit.committedInstType_0::MemWrite       199602      0.21%     46.00% # Class of committed instruction (Count)
system.cpu.commit.committedInstType_0::FloatMemRead          448      0.00%     46.00% # Class of committed instruction (Count)
system.cpu.commit.committedInstType_0::FloatMemWrite     51828816     54.00%    100.00% # Class of committed instruction (Count)
system.cpu.commit.committedInstType_0::IprAccess            0      0.00%    100.00% # Class of committed instruction (Count)
system.cpu.commit.committedInstType_0::InstPrefetch            0      0.00%    100.00% # Class of committed instruction (Count)
system.cpu.commit.committedInstType_0::total     95981340                       # Class of committed instruction (Count)
system.cpu.commit.commitEligibleSamples       1149935                       # number cycles where commit BW limit reached (Cycle)
system.cpu.dcache.demandHits::cpu.data       49873481                       # number of demand (read+write) hits (Count)
system.cpu.dcache.demandHits::total          49873481                       # number of demand (read+write) hits (Count)
system.cpu.dcache.overallHits::cpu.data      49873481                       # number of overall hits (Count)
system.cpu.dcache.overallHits::total         49873481                       # number of overall hits (Count)
system.cpu.dcache.demandMisses::cpu.data      3247923                       # number of demand (read+write) misses (Count)
system.cpu.dcache.demandMisses::total         3247923                       # number of demand (read+write) misses (Count)
system.cpu.dcache.overallMisses::cpu.data      3247923                       # number of overall misses (Count)
system.cpu.dcache.overallMisses::total        3247923                       # number of overall misses (Count)
system.cpu.dcache.demandMissLatency::cpu.data 295781528000                       # number of demand (read+write) miss ticks (Tick)
system.cpu.dcache.demandMissLatency::total 295781528000                       # number of demand (read+write) miss ticks (Tick)
system.cpu.dcache.overallMissLatency::cpu.data 295781528000                       # number of overall miss ticks (Tick)
system.cpu.dcache.overallMissLatency::total 295781528000                       # number of overall miss ticks (Tick)
system.cpu.dcache.demandAccesses::cpu.data     53121404                       # number of demand (read+write) accesses (Count)
system.cpu.dcache.demandAccesses::total      53121404                       # number of demand (read+write) accesses (Count)
system.cpu.dcache.overallAccesses::cpu.data     53121404                       # number of overall (read+write) accesses (Count)
system.cpu.dcache.overallAccesses::total     53121404                       # number of overall (read+write) accesses (Count)
system.cpu.dcache.demandMissRate::cpu.data     0.061142                       # miss rate for demand accesses (Ratio)
system.cpu.dcache.demandMissRate::total      0.061142                       # miss rate for demand accesses (Ratio)
system.cpu.dcache.overallMissRate::cpu.data     0.061142                       # miss rate for overall accesses (Ratio)
system.cpu.dcache.overallMissRate::total     0.061142                       # miss rate for overall accesses (Ratio)
system.cpu.dcache.demandAvgMissLatency::cpu.data 91067.900317                       # average overall miss latency in ticks ((Tick/Count))
system.cpu.dcache.demandAvgMissLatency::total 91067.900317                       # average overall miss latency in ticks ((Tick/Count))
system.cpu.dcache.overallAvgMissLatency::cpu.data 91067.900317                       # average overall miss latency ((Tick/Count))
system.cpu.dcache.overallAvgMissLatency::total 91067.900317                       # average overall miss latency ((Tick/Count))
system.cpu.dcache.blockedCycles::no_mshrs         1333                       # number of cycles access was blocked (Cycle)
system.cpu.dcache.blockedCycles::no_targets            0                       # number of cycles access was blocked (Cycle)
system.cpu.dcache.blockedCauses::no_mshrs           42                       # number of times access was blocked (Count)
system.cpu.dcache.blockedCauses::no_targets            0                       # number of times access was blocked (Count)
system.cpu.dcache.avgBlocked::no_mshrs      31.738095                       # average number of cycles each access was blocked ((Cycle/Count))
system.cpu.dcache.avgBlocked::no_targets          nan                       # average number of cycles each access was blocked ((Cycle/Count))
system.cpu.dcache.writebacks::writebacks      6480625                       # number of writebacks (Count)
system.cpu.dcache.writebacks::total           6480625                       # number of writebacks (Count)
system.cpu.dcache.demandMshrHits::cpu.data        12219                       # number of demand (read+write) MSHR hits (Count)
system.cpu.dcache.demandMshrHits::total         12219                       # number of demand (read+write) MSHR hits (Count)
system.cpu.dcache.overallMshrHits::cpu.data        12219                       # number of overall MSHR hits (Count)
system.cpu.dcache.overallMshrHits::total        12219                       # number of overall MSHR hits (Count)
system.cpu.dcache.demandMshrMisses::cpu.data      3235704                       # number of demand (read+write) MSHR misses (Count)
system.cpu.dcache.demandMshrMisses::total      3235704                       # number of demand (read+write) MSHR misses (Count)
system.cpu.dcache.overallMshrMisses::cpu.data      3235704                       # number of overall MSHR misses (Count)
system.cpu.dcache.overallMshrMisses::cpu.dcache.prefetcher      3246280                       # number of overall MSHR misses (Count)
system.cpu.dcache.overallMshrMisses::total      6481984                       # number of overall MSHR misses (Count)
system.cpu.dcache.demandMshrMissLatency::cpu.data 291778262000                       # number of demand (read+write) MSHR miss ticks (Tick)
system.cpu.dcache.demandMshrMissLatency::total 291778262000                       # number of demand (read+write) MSHR miss ticks (Tick)
system.cpu.dcache.overallMshrMissLatency::cpu.data 291778262000                       # number of overall MSHR miss ticks (Tick)
system.cpu.dcache.overallMshrMissLatency::cpu.dcache.prefetcher 302791614666                       # number of overall MSHR miss ticks (Tick)
system.cpu.dcache.overallMshrMissLatency::total 594569876666                       # number of overall MSHR miss ticks (Tick)
system.cpu.dcache.demandMshrMissRate::cpu.data     0.060911                       # mshr miss ratio for demand accesses (Ratio)
system.cpu.dcache.demandMshrMissRate::total     0.060911                       # mshr miss ratio for demand accesses (Ratio)
system.cpu.dcache.overallMshrMissRate::cpu.data     0.060911                       # mshr miss ratio for overall accesses (Ratio)
system.cpu.dcache.overallMshrMissRate::cpu.dcache.prefetcher          inf                       # mshr miss ratio for overall accesses (Ratio)
system.cpu.dcache.overallMshrMissRate::total     0.122022                       # mshr miss ratio for overall accesses (Ratio)
system.cpu.dcache.demandAvgMshrMissLatency::cpu.data 90174.583955                       # average overall mshr miss latency ((Tick/Count))
system.cpu.dcache.demandAvgMshrMissLatency::total 90174.583955                       # average overall mshr miss latency ((Tick/Count))
system.cpu.dcache.overallAvgMshrMissLatency::cpu.data 90174.583955                       # average overall mshr miss latency ((Tick/Count))
system.cpu.dcache.overallAvgMshrMissLatency::cpu.dcache.prefetcher 93273.412850                       # average overall mshr miss latency ((Tick/Count))
system.cpu.dcache.overallAvgMshrMissLatency::total 91726.526426                       # average overall mshr miss latency ((Tick/Count))
system.cpu.dcache.replacements                6480959                       # number of replacements (Count)
system.cpu.dcache.HardPFReq.mshrMisses::cpu.dcache.prefetcher      3246280                       # number of HardPFReq MSHR misses (Count)
system.cpu.dcache.HardPFReq.mshrMisses::total      3246280                       # number of HardPFReq MSHR misses (Count)
system.cpu.dcache.HardPFReq.mshrMissLatency::cpu.dcache.prefetcher 302791614666                       # number of HardPFReq MSHR miss ticks (Tick)
system.cpu.dcache.HardPFReq.mshrMissLatency::total 302791614666                       # number of HardPFReq MSHR miss ticks (Tick)
system.cpu.dcache.HardPFReq.mshrMissRate::cpu.dcache.prefetcher          inf                       # mshr miss rate for HardPFReq accesses (Ratio)
system.cpu.dcache.HardPFReq.mshrMissRate::total          inf                       # mshr miss rate for HardPFReq accesses (Ratio)
system.cpu.dcache.HardPFReq.avgMshrMissLatency::cpu.dcache.prefetcher 93273.412850                       # average HardPFReq mshr miss latency ((Tick/Count))
system.cpu.dcache.HardPFReq.avgMshrMissLatency::total 93273.412850                       # average HardPFReq mshr miss latency ((Tick/Count))
system.cpu.dcache.LockedRMWReadReq.hits::cpu.data           16                       # number of LockedRMWReadReq hits (Count)
system.cpu.dcache.LockedRMWReadReq.hits::total           16                       # number of LockedRMWReadReq hits (Count)
system.cpu.dcache.LockedRMWReadReq.accesses::cpu.data           16                       # number of LockedRMWReadReq accesses(hits+misses) (Count)
system.cpu.dcache.LockedRMWReadReq.accesses::total           16                       # number of LockedRMWReadReq accesses(hits+misses) (Count)
system.cpu.dcache.LockedRMWReadReq.mshrMissLatency::cpu.data       217000                       # number of LockedRMWReadReq MSHR miss ticks (Tick)
system.cpu.dcache.LockedRMWReadReq.mshrMissLatency::total       217000                       # number of LockedRMWReadReq MSHR miss ticks (Tick)
system.cpu.dcache.LockedRMWReadReq.avgMshrMissLatency::cpu.data          inf                       # average LockedRMWReadReq mshr miss latency ((Tick/Count))
system.cpu.dcache.LockedRMWReadReq.avgMshrMissLatency::total          inf                       # average LockedRMWReadReq mshr miss latency ((Tick/Count))
system.cpu.dcache.LockedRMWWriteReq.hits::cpu.data           16                       # number of LockedRMWWriteReq hits (Count)
system.cpu.dcache.LockedRMWWriteReq.hits::total           16                       # number of LockedRMWWriteReq hits (Count)
system.cpu.dcache.LockedRMWWriteReq.accesses::cpu.data           16                       # number of LockedRMWWriteReq accesses(hits+misses) (Count)
system.cpu.dcache.LockedRMWWriteReq.accesses::total           16                       # number of LockedRMWWriteReq accesses(hits+misses) (Count)
system.cpu.dcache.ReadReq.hits::cpu.data      1092425                       # number of ReadReq hits (Count)
system.cpu.dcache.ReadReq.hits::total         1092425                       # number of ReadReq hits (Count)
system.cpu.dcache.ReadReq.misses::cpu.data          700                       # number of ReadReq misses (Count)
system.cpu.dcache.ReadReq.misses::total           700                       # number of ReadReq misses (Count)
system.cpu.dcache.ReadReq.missLatency::cpu.data     62360000                       # number of ReadReq miss ticks (Tick)
system.cpu.dcache.ReadReq.missLatency::total     62360000                       # number of ReadReq miss ticks (Tick)
system.cpu.dcache.ReadReq.accesses::cpu.data      1093125                       # number of ReadReq accesses(hits+misses) (Count)
system.cpu.dcache.ReadReq.accesses::total      1093125                       # number of ReadReq accesses(hits+misses) (Count)
system.cpu.dcache.ReadReq.missRate::cpu.data     0.000640                       # miss rate for ReadReq accesses (Ratio)
system.cpu.dcache.ReadReq.missRate::total     0.000640                       # miss rate for ReadReq accesses (Ratio)
system.cpu.dcache.ReadReq.avgMissLatency::cpu.data 89085.714286                       # average ReadReq miss latency ((Tick/Count))
system.cpu.dcache.ReadReq.avgMissLatency::total 89085.714286                       # average ReadReq miss latency ((Tick/Count))
system.cpu.dcache.ReadReq.mshrHits::cpu.data          331                       # number of ReadReq MSHR hits (Count)
system.cpu.dcache.ReadReq.mshrHits::total          331                       # number of ReadReq MSHR hits (Count)
system.cpu.dcache.ReadReq.mshrMisses::cpu.data          369                       # number of ReadReq MSHR misses (Count)
system.cpu.dcache.ReadReq.mshrMisses::total          369                       # number of ReadReq MSHR misses (Count)
system.cpu.dcache.ReadReq.mshrMissLatency::cpu.data     32844000                       # number of ReadReq MSHR miss ticks (Tick)
system.cpu.dcache.ReadReq.mshrMissLatency::total     32844000                       # number of ReadReq MSHR miss ticks (Tick)
system.cpu.dcache.ReadReq.mshrMissRate::cpu.data     0.000338                       # mshr miss rate for ReadReq accesses (Ratio)
system.cpu.dcache.ReadReq.mshrMissRate::total     0.000338                       # mshr miss rate for ReadReq accesses (Ratio)
system.cpu.dcache.ReadReq.avgMshrMissLatency::cpu.data 89008.130081                       # average ReadReq mshr miss latency ((Tick/Count))
system.cpu.dcache.ReadReq.avgMshrMissLatency::total 89008.130081                       # average ReadReq mshr miss latency ((Tick/Count))
system.cpu.dcache.WriteReq.hits::cpu.data     48781056                       # number of WriteReq hits (Count)
system.cpu.dcache.WriteReq.hits::total       48781056                       # number of WriteReq hits (Count)
system.cpu.dcache.WriteReq.misses::cpu.data      3247223                       # number of WriteReq misses (Count)
system.cpu.dcache.WriteReq.misses::total      3247223                       # number of WriteReq misses (Count)
system.cpu.dcache.WriteReq.missLatency::cpu.data 295719168000                       # number of WriteReq miss ticks (Tick)
system.cpu.dcache.WriteReq.missLatency::total 295719168000                       # number of WriteReq miss ticks (Tick)
system.cpu.dcache.WriteReq.accesses::cpu.data     52028279                       # number of WriteReq accesses(hits+misses) (Count)
system.cpu.dcache.WriteReq.accesses::total     52028279                       # number of WriteReq accesses(hits+misses) (Count)
system.cpu.dcache.WriteReq.missRate::cpu.data     0.062413                       # miss rate for WriteReq accesses (Ratio)
system.cpu.dcache.WriteReq.missRate::total     0.062413                       # miss rate for WriteReq accesses (Ratio)
system.cpu.dcache.WriteReq.avgMissLatency::cpu.data 91068.327614                       # average WriteReq miss latency ((Tick/Count))
system.cpu.dcache.WriteReq.avgMissLatency::total 91068.327614                       # average WriteReq miss latency ((Tick/Count))
system.cpu.dcache.WriteReq.mshrHits::cpu.data        11888                       # number of WriteReq MSHR hits (Count)
system.cpu.dcache.WriteReq.mshrHits::total        11888                       # number of WriteReq MSHR hits (Count)
system.cpu.dcache.WriteReq.mshrMisses::cpu.data      3235335                       # number of WriteReq MSHR misses (Count)
system.cpu.dcache.WriteReq.mshrMisses::total      3235335                       # number of WriteReq MSHR misses (Count)
system.cpu.dcache.WriteReq.mshrMissLatency::cpu.data 291745418000                       # number of WriteReq MSHR miss ticks (Tick)
system.cpu.dcache.WriteReq.mshrMissLatency::total 291745418000                       # number of WriteReq MSHR miss ticks (Tick)
system.cpu.dcache.WriteReq.mshrMissRate::cpu.data     0.062184                       # mshr miss rate for WriteReq accesses (Ratio)
system.cpu.dcache.WriteReq.mshrMissRate::total     0.062184                       # mshr miss rate for WriteReq accesses (Ratio)
system.cpu.dcache.WriteReq.avgMshrMissLatency::cpu.data 90174.716992                       # average WriteReq mshr miss latency ((Tick/Count))
system.cpu.dcache.WriteReq.avgMshrMissLatency::total 90174.716992                       # average WriteReq mshr miss latency ((Tick/Count))
system.cpu.dcache.power_state.pwrStateResidencyTicks::UNDEFINED 396808347000                       # Cumulative time (in ticks) in various power states (Tick)
system.cpu.dcache.prefetcher.demandMshrMisses      3235704                       # demands not covered by prefetchs (Count)
system.cpu.dcache.prefetcher.pfIssued         3252825                       # number of hwpf issued (Count)
system.cpu.dcache.prefetcher.pfUnused              55                       # number of HardPF blocks evicted w/o reference (Count)
system.cpu.dcache.prefetcher.pfUseful         3234340                       # number of useful prefetch (Count)
system.cpu.dcache.prefetcher.pfUsefulButMiss            0                       # number of hit on prefetch but cache block is not in an usable state (Count)
system.cpu.dcache.prefetcher.accuracy        0.994317                       # accuracy of the prefetcher (Count)
system.cpu.dcache.prefetcher.coverage        0.499895                       # coverage brought by this prefetcher (Count)
system.cpu.dcache.prefetcher.pfHitInCache         6499                       # number of prefetches hitting in cache (Count)
system.cpu.dcache.prefetcher.pfHitInMSHR           46                       # number of prefetches hitting in a MSHR (Count)
system.cpu.dcache.prefetcher.pfHitInWB              0                       # number of prefetches hit in the Write Buffer (Count)
system.cpu.dcache.prefetcher.pfLate              6545                       # number of late prefetches (hitting in cache, MSHR or WB) (Count)
system.cpu.dcache.prefetcher.pfIdentified      3258924                       # number of prefetch candidates identified (Count)
system.cpu.dcache.prefetcher.pfBufferHit         3758                       # number of redundant prefetches already in prefetch queue (Count)
system.cpu.dcache.prefetcher.pfInCache              0                       # number of redundant prefetches already in cache/mshr dropped (Count)
system.cpu.dcache.prefetcher.pfRemovedDemand          269                       # number of prefetches dropped due to a demand for the same address (Count)
system.cpu.dcache.prefetcher.pfRemovedFull            0                       # number of prefetches dropped due to prefetch queue size (Count)
system.cpu.dcache.prefetcher.pfSpanPage          9028                       # number of prefetches that crossed the page (Count)
system.cpu.dcache.prefetcher.pfUsefulSpanPage            0                       # number of prefetches that is useful and crossed the page (Count)
system.cpu.dcache.prefetcher.power_state.pwrStateResidencyTicks::UNDEFINED 396808347000                       # Cumulative time (in ticks) in various power states (Tick)
system.cpu.dcache.tags.tagsInUse          1023.562609                       # Average ticks per tags in use ((Tick/Count))
system.cpu.dcache.tags.totalRefs             56355496                       # Total number of references to valid blocks. (Count)
system.cpu.dcache.tags.sampledRefs            6481983                       # Sample count of references to valid blocks. (Count)
system.cpu.dcache.tags.avgRefs               8.694175                       # Average number of references to valid blocks. ((Count/Count))
system.cpu.dcache.tags.warmupTick              185000                       # The tick when the warmup percentage was hit. (Tick)
system.cpu.dcache.tags.occupancies::cpu.data   511.679388                       # Average occupied blocks per tick, per requestor ((Count/Tick))
system.cpu.dcache.tags.occupancies::cpu.dcache.prefetcher   511.883221                       # Average occupied blocks per tick, per requestor ((Count/Tick))
system.cpu.dcache.tags.avgOccs::cpu.data     0.499687                       # Average percentage of cache occupancy ((Ratio/Tick))
system.cpu.dcache.tags.avgOccs::cpu.dcache.prefetcher     0.499886                       # Average percentage of cache occupancy ((Ratio/Tick))
system.cpu.dcache.tags.avgOccs::total        0.999573                       # Average percentage of cache occupancy ((Ratio/Tick))
system.cpu.dcache.tags.occupanciesTaskId::1022          512                       # Occupied blocks per task id (Count)
system.cpu.dcache.tags.occupanciesTaskId::1024          512                       # Occupied blocks per task id (Count)
system.cpu.dcache.tags.ageTaskId_1022::0           84                       # Occupied blocks per task id, per block age (Count)
system.cpu.dcache.tags.ageTaskId_1022::1          428                       # Occupied blocks per task id, per block age (Count)
system.cpu.dcache.tags.ageTaskId_1024::0           83                       # Occupied blocks per task id, per block age (Count)
system.cpu.dcache.tags.ageTaskId_1024::1          429                       # Occupied blocks per task id, per block age (Count)
system.cpu.dcache.tags.ratioOccsTaskId::1022     0.500000                       # Ratio of occupied blocks and all blocks, per task id (Ratio)
system.cpu.dcache.tags.ratioOccsTaskId::1024     0.500000                       # Ratio of occupied blocks and all blocks, per task id (Ratio)
system.cpu.dcache.tags.tagAccesses          218967727                       # Number of tag accesses (Count)
system.cpu.dcache.tags.dataAccesses         218967727                       # Number of data accesses (Count)
system.cpu.dcache.tags.power_state.pwrStateResidencyTicks::UNDEFINED 396808347000                       # Cumulative time (in ticks) in various power states (Tick)
system.cpu.decode.idleCycles                  3938052                       # Number of cycles decode is idle (Cycle)
system.cpu.decode.blockedCycles             380107818                       # Number of cycles decode is blocked (Cycle)
system.cpu.decode.runCycles                   1271804                       # Number of cycles decode is running (Cycle)
system.cpu.decode.unblockCycles              11420526                       # Number of cycles decode is unblocking (Cycle)
system.cpu.decode.squashCycles                  47208                       # Number of cycles decode is squashing (Cycle)
system.cpu.decode.branchResolved              6888091                       # Number of times decode resolved a branch (Count)
system.cpu.decode.branchMispred                   927                       # Number of times decode detected a branch misprediction (Count)
system.cpu.decode.decodedInsts              101362804                       # Number of instructions handled by decode (Count)
system.cpu.decode.squashedInsts                  4549                       # Number of squashed instructions handled by decode (Count)
system.cpu.fetch.icacheStallCycles             334293                       # Number of cycles fetch is stalled on an Icache miss (Cycle)
system.cpu.fetch.insts                       53622985                       # Number of instructions fetch has processed (Count)
system.cpu.fetch.branches                     7049646                       # Number of branches that fetch encountered (Count)
system.cpu.fetch.predictedBranches            7027379                       # Number of branches that fetch has predicted taken (Count)
system.cpu.fetch.cycles                     396402626                       # Number of cycles fetch has run and was not squashing or blocked (Cycle)
system.cpu.fetch.squashCycles                   96220                       # Number of cycles fetch has spent squashing (Cycle)
system.cpu.fetch.miscStallCycles                   47                       # Number of cycles fetch has spent waiting on interrupts, or bad addresses, or out of MSHRs (Cycle)
system.cpu.fetch.pendingTrapStallCycles           320                       # Number of stall cycles due to pending traps (Cycle)
system.cpu.fetch.icacheWaitRetryStallCycles           12                       # Number of stall cycles due to full MSHR (Cycle)
system.cpu.fetch.cacheLines                    302250                       # Number of cache lines fetched (Count)
system.cpu.fetch.icacheSquashes                  1521                       # Number of outstanding Icache misses that were squashed (Count)
system.cpu.fetch.nisnDist::samples          396785408                       # Number of instructions fetched each cycle (Total) (Count)
system.cpu.fetch.nisnDist::mean              0.260040                       # Number of instructions fetched each cycle (Total) (Count)
system.cpu.fetch.nisnDist::stdev             1.284591                       # Number of instructions fetched each cycle (Total) (Count)
system.cpu.fetch.nisnDist::underflows               0      0.00%      0.00% # Number of instructions fetched each cycle (Total) (Count)
system.cpu.fetch.nisnDist::0                378274273     95.33%     95.33% # Number of instructions fetched each cycle (Total) (Count)
system.cpu.fetch.nisnDist::1                   945206      0.24%     95.57% # Number of instructions fetched each cycle (Total) (Count)
system.cpu.fetch.nisnDist::2                  2357855      0.59%     96.17% # Number of instructions fetched each cycle (Total) (Count)
system.cpu.fetch.nisnDist::3                   967614      0.24%     96.41% # Number of instructions fetched each cycle (Total) (Count)
system.cpu.fetch.nisnDist::4                  2404076      0.61%     97.02% # Number of instructions fetched each cycle (Total) (Count)
system.cpu.fetch.nisnDist::5                   948815      0.24%     97.26% # Number of instructions fetched each cycle (Total) (Count)
system.cpu.fetch.nisnDist::6                  3094018      0.78%     98.04% # Number of instructions fetched each cycle (Total) (Count)
system.cpu.fetch.nisnDist::7                   656456      0.17%     98.20% # Number of instructions fetched each cycle (Total) (Count)
system.cpu.fetch.nisnDist::8                  7137095      1.80%    100.00% # Number of instructions fetched each cycle (Total) (Count)
system.cpu.fetch.nisnDist::overflows                0      0.00%    100.00% # Number of instructions fetched each cycle (Total) (Count)
system.cpu.fetch.nisnDist::min_value                0                       # Number of instructions fetched each cycle (Total) (Count)
system.cpu.fetch.nisnDist::max_value                8                       # Number of instructions fetched each cycle (Total) (Count)
system.cpu.fetch.nisnDist::total            396785408                       # Number of instructions fetched each cycle (Total) (Count)
system.cpu.fetch.branchRate                  0.017766                       # Number of branch fetches per cycle (Ratio)
system.cpu.fetch.rate                        0.135136                       # Number of inst fetches per cycle ((Count/Cycle))
system.cpu.icache.demandHits::cpu.inst         300919                       # number of demand (read+write) hits (Count)
system.cpu.icache.demandHits::total            300919                       # number of demand (read+write) hits (Count)
system.cpu.icache.overallHits::cpu.inst        300919                       # number of overall hits (Count)
system.cpu.icache.overallHits::total           300919                       # number of overall hits (Count)
system.cpu.icache.demandMisses::cpu.inst         1331                       # number of demand (read+write) misses (Count)
system.cpu.icache.demandMisses::total            1331                       # number of demand (read+write) misses (Count)
system.cpu.icache.overallMisses::cpu.inst         1331                       # number of overall misses (Count)
system.cpu.icache.overallMisses::total           1331                       # number of overall misses (Count)
system.cpu.icache.demandMissLatency::cpu.inst    102638999                       # number of demand (read+write) miss ticks (Tick)
system.cpu.icache.demandMissLatency::total    102638999                       # number of demand (read+write) miss ticks (Tick)
system.cpu.icache.overallMissLatency::cpu.inst    102638999                       # number of overall miss ticks (Tick)
system.cpu.icache.overallMissLatency::total    102638999                       # number of overall miss ticks (Tick)
system.cpu.icache.demandAccesses::cpu.inst       302250                       # number of demand (read+write) accesses (Count)
system.cpu.icache.demandAccesses::total        302250                       # number of demand (read+write) accesses (Count)
system.cpu.icache.overallAccesses::cpu.inst       302250                       # number of overall (read+write) accesses (Count)
system.cpu.icache.overallAccesses::total       302250                       # number of overall (read+write) accesses (Count)
system.cpu.icache.demandMissRate::cpu.inst     0.004404                       # miss rate for demand accesses (Ratio)
system.cpu.icache.demandMissRate::total      0.004404                       # miss rate for demand accesses (Ratio)
system.cpu.icache.overallMissRate::cpu.inst     0.004404                       # miss rate for overall accesses (Ratio)
system.cpu.icache.overallMissRate::total     0.004404                       # miss rate for overall accesses (Ratio)
system.cpu.icache.demandAvgMissLatency::cpu.inst 77114.199098                       # average overall miss latency in ticks ((Tick/Count))
system.cpu.icache.demandAvgMissLatency::total 77114.199098                       # average overall miss latency in ticks ((Tick/Count))
system.cpu.icache.overallAvgMissLatency::cpu.inst 77114.199098                       # average overall miss latency ((Tick/Count))
system.cpu.icache.overallAvgMissLatency::total 77114.199098                       # average overall miss latency ((Tick/Count))
system.cpu.icache.blockedCycles::no_mshrs           98                       # number of cycles access was blocked (Cycle)
system.cpu.icache.blockedCycles::no_targets            0                       # number of cycles access was blocked (Cycle)
system.cpu.icache.blockedCauses::no_mshrs            6                       # number of times access was blocked (Count)
system.cpu.icache.blockedCauses::no_targets            0                       # number of times access was blocked (Count)
system.cpu.icache.avgBlocked::no_mshrs      16.333333                       # average number of cycles each access was blocked ((Cycle/Count))
system.cpu.icache.avgBlocked::no_targets          nan                       # average number of cycles each access was blocked ((Cycle/Count))
system.cpu.icache.demandMshrHits::cpu.inst          349                       # number of demand (read+write) MSHR hits (Count)
system.cpu.icache.demandMshrHits::total           349                       # number of demand (read+write) MSHR hits (Count)
system.cpu.icache.overallMshrHits::cpu.inst          349                       # number of overall MSHR hits (Count)
system.cpu.icache.overallMshrHits::total          349                       # number of overall MSHR hits (Count)
system.cpu.icache.demandMshrMisses::cpu.inst          982                       # number of demand (read+write) MSHR misses (Count)
system.cpu.icache.demandMshrMisses::total          982                       # number of demand (read+write) MSHR misses (Count)
system.cpu.icache.overallMshrMisses::cpu.inst          982                       # number of overall MSHR misses (Count)
system.cpu.icache.overallMshrMisses::total          982                       # number of overall MSHR misses (Count)
system.cpu.icache.demandMshrMissLatency::cpu.inst     83356999                       # number of demand (read+write) MSHR miss ticks (Tick)
system.cpu.icache.demandMshrMissLatency::total     83356999                       # number of demand (read+write) MSHR miss ticks (Tick)
system.cpu.icache.overallMshrMissLatency::cpu.inst     83356999                       # number of overall MSHR miss ticks (Tick)
system.cpu.icache.overallMshrMissLatency::total     83356999                       # number of overall MSHR miss ticks (Tick)
system.cpu.icache.demandMshrMissRate::cpu.inst     0.003249                       # mshr miss ratio for demand accesses (Ratio)
system.cpu.icache.demandMshrMissRate::total     0.003249                       # mshr miss ratio for demand accesses (Ratio)
system.cpu.icache.overallMshrMissRate::cpu.inst     0.003249                       # mshr miss ratio for overall accesses (Ratio)
system.cpu.icache.overallMshrMissRate::total     0.003249                       # mshr miss ratio for overall accesses (Ratio)
system.cpu.icache.demandAvgMshrMissLatency::cpu.inst 84884.927699                       # average overall mshr miss latency ((Tick/Count))
system.cpu.icache.demandAvgMshrMissLatency::total 84884.927699                       # average overall mshr miss latency ((Tick/Count))
system.cpu.icache.overallAvgMshrMissLatency::cpu.inst 84884.927699                       # average overall mshr miss latency ((Tick/Count))
system.cpu.icache.overallAvgMshrMissLatency::total 84884.927699                       # average overall mshr miss latency ((Tick/Count))
system.cpu.icache.replacements                    148                       # number of replacements (Count)
system.cpu.icache.ReadReq.hits::cpu.inst       300919                       # number of ReadReq hits (Count)
system.cpu.icache.ReadReq.hits::total          300919                       # number of ReadReq hits (Count)
system.cpu.icache.ReadReq.misses::cpu.inst         1331                       # number of ReadReq misses (Count)
system.cpu.icache.ReadReq.misses::total          1331                       # number of ReadReq misses (Count)
system.cpu.icache.ReadReq.missLatency::cpu.inst    102638999                       # number of ReadReq miss ticks (Tick)
system.cpu.icache.ReadReq.missLatency::total    102638999                       # number of ReadReq miss ticks (Tick)
system.cpu.icache.ReadReq.accesses::cpu.inst       302250                       # number of ReadReq accesses(hits+misses) (Count)
system.cpu.icache.ReadReq.accesses::total       302250                       # number of ReadReq accesses(hits+misses) (Count)
system.cpu.icache.ReadReq.missRate::cpu.inst     0.004404                       # miss rate for ReadReq accesses (Ratio)
system.cpu.icache.ReadReq.missRate::total     0.004404                       # miss rate for ReadReq accesses (Ratio)
system.cpu.icache.ReadReq.avgMissLatency::cpu.inst 77114.199098                       # average ReadReq miss latency ((Tick/Count))
system.cpu.icache.ReadReq.avgMissLatency::total 77114.199098                       # average ReadReq miss latency ((Tick/Count))
system.cpu.icache.ReadReq.mshrHits::cpu.inst          349                       # number of ReadReq MSHR hits (Count)
system.cpu.icache.ReadReq.mshrHits::total          349                       # number of ReadReq MSHR hits (Count)
system.cpu.icache.ReadReq.mshrMisses::cpu.inst          982                       # number of ReadReq MSHR misses (Count)
system.cpu.icache.ReadReq.mshrMisses::total          982                       # number of ReadReq MSHR misses (Count)
system.cpu.icache.ReadReq.mshrMissLatency::cpu.inst     83356999                       # number of ReadReq MSHR miss ticks (Tick)
system.cpu.icache.ReadReq.mshrMissLatency::total     83356999                       # number of ReadReq MSHR miss ticks (Tick)
system.cpu.icache.ReadReq.mshrMissRate::cpu.inst     0.003249                       # mshr miss rate for ReadReq accesses (Ratio)
system.cpu.icache.ReadReq.mshrMissRate::total     0.003249                       # mshr miss rate for ReadReq accesses (Ratio)
system.cpu.icache.ReadReq.avgMshrMissLatency::cpu.inst 84884.927699                       # average ReadReq mshr miss latency ((Tick/Count))
system.cpu.icache.ReadReq.avgMshrMissLatency::total 84884.927699                       # average ReadReq mshr miss latency ((Tick/Count))
system.cpu.icache.power_state.pwrStateResidencyTicks::UNDEFINED 396808347000                       # Cumulative time (in ticks) in various power states (Tick)
system.cpu.icache.prefetcher.demandMshrMisses          982                       # demands not covered by prefetchs (Count)
system.cpu.icache.prefetcher.pfIssued               0                       # number of hwpf issued (Count)
system.cpu.icache.prefetcher.pfUseful               0                       # number of useful prefetch (Count)
system.cpu.icache.prefetcher.pfUsefulButMiss            0                       # number of hit on prefetch but cache block is not in an usable state (Count)
system.cpu.icache.prefetcher.accuracy             nan                       # accuracy of the prefetcher (Count)
system.cpu.icache.prefetcher.coverage               0                       # coverage brought by this prefetcher (Count)
system.cpu.icache.prefetcher.pfHitInCache            0                       # number of prefetches hitting in cache (Count)
system.cpu.icache.prefetcher.pfHitInMSHR            0                       # number of prefetches hitting in a MSHR (Count)
system.cpu.icache.prefetcher.pfHitInWB              0                       # number of prefetches hit in the Write Buffer (Count)
system.cpu.icache.prefetcher.pfLate                 0                       # number of late prefetches (hitting in cache, MSHR or WB) (Count)
system.cpu.icache.prefetcher.pfIdentified            0                       # number of prefetch candidates identified (Count)
system.cpu.icache.prefetcher.pfBufferHit            0                       # number of redundant prefetches already in prefetch queue (Count)
system.cpu.icache.prefetcher.pfInCache              0                       # number of redundant prefetches already in cache/mshr dropped (Count)
system.cpu.icache.prefetcher.pfRemovedDemand            0                       # number of prefetches dropped due to a demand for the same address (Count)
system.cpu.icache.prefetcher.pfRemovedFull            0                       # number of prefetches dropped due to prefetch queue size (Count)
system.cpu.icache.prefetcher.pfSpanPage             0                       # number of prefetches that crossed the page (Count)
system.cpu.icache.prefetcher.pfUsefulSpanPage            0                       # number of prefetches that is useful and crossed the page (Count)
system.cpu.icache.prefetcher.power_state.pwrStateResidencyTicks::UNDEFINED 396808347000                       # Cumulative time (in ticks) in various power states (Tick)
system.cpu.icache.tags.tagsInUse           589.384956                       # Average ticks per tags in use ((Tick/Count))
system.cpu.icache.tags.totalRefs               301901                       # Total number of references to valid blocks. (Count)
system.cpu.icache.tags.sampledRefs                982                       # Sample count of references to valid blocks. (Count)
system.cpu.icache.tags.avgRefs             307.434827                       # Average number of references to valid blocks. ((Count/Count))
system.cpu.icache.tags.warmupTick               88000                       # The tick when the warmup percentage was hit. (Tick)
system.cpu.icache.tags.occupancies::cpu.inst   589.384956                       # Average occupied blocks per tick, per requestor ((Count/Tick))
system.cpu.icache.tags.avgOccs::cpu.inst     0.575571                       # Average percentage of cache occupancy ((Ratio/Tick))
system.cpu.icache.tags.avgOccs::total        0.575571                       # Average percentage of cache occupancy ((Ratio/Tick))
system.cpu.icache.tags.occupanciesTaskId::1024          834                       # Occupied blocks per task id (Count)
system.cpu.icache.tags.ageTaskId_1024::4          834                       # Occupied blocks per task id, per block age (Count)
system.cpu.icache.tags.ratioOccsTaskId::1024     0.814453                       # Ratio of occupied blocks and all blocks, per task id (Ratio)
system.cpu.icache.tags.tagAccesses            1209982                       # Number of tag accesses (Count)
system.cpu.icache.tags.dataAccesses           1209982                       # Number of data accesses (Count)
system.cpu.icache.tags.power_state.pwrStateResidencyTicks::UNDEFINED 396808347000                       # Cumulative time (in ticks) in various power states (Tick)
system.cpu.iew.idleCycles                           0                       # Number of cycles IEW is idle (Cycle)
system.cpu.iew.squashCycles                     47208                       # Number of cycles IEW is squashing (Cycle)
system.cpu.iew.blockCycles                   17859436                       # Number of cycles IEW is blocking (Cycle)
system.cpu.iew.unblockCycles                212066118                       # Number of cycles IEW is unblocking (Cycle)
system.cpu.iew.dispatchedInsts              100807971                       # Number of instructions dispatched to IQ (Count)
system.cpu.iew.dispSquashedInsts                   82                       # Number of squashed instructions skipped by dispatch (Count)
system.cpu.iew.dispLoadInsts                  1381170                       # Number of dispatched load instructions (Count)
system.cpu.iew.dispStoreInsts                54853318                       # Number of dispatched store instructions (Count)
system.cpu.iew.dispNonSpecInsts                   230                       # Number of dispatched non-speculative instructions (Count)
system.cpu.iew.iqFullEvents                      9144                       # Number of times the IQ has become full, causing a stall (Count)
system.cpu.iew.lsqFullEvents                212042773                       # Number of times the LSQ has become full, causing a stall (Count)
system.cpu.iew.memOrderViolationEvents            543                       # Number of memory order violations (Count)
[...]
system.mem_ctrl.dram.numWrites::writebacks      6477518                       # Number of write requests responded to by this memory (Count)
system.mem_ctrl.dram.numWrites::total         6477518                       # Number of write requests responded to by this memory (Count)
system.mem_ctrl.dram.bwRead::cpu.inst          158061                       # Total read bandwidth from this memory ((Byte/Second))
system.mem_ctrl.dram.bwRead::cpu.data       521263228                       # Total read bandwidth from this memory ((Byte/Second))
system.mem_ctrl.dram.bwRead::cpu.dcache.prefetcher    522800454                       # Total read bandwidth from this memory ((Byte/Second))
system.mem_ctrl.dram.bwRead::l2cache.prefetcher      1391906                       # Total read bandwidth from this memory ((Byte/Second))
system.mem_ctrl.dram.bwRead::total         1045613650                       # Total read bandwidth from this memory ((Byte/Second))
system.mem_ctrl.dram.bwInstRead::cpu.inst       158061                       # Instruction read bandwidth from this memory ((Byte/Second))
system.mem_ctrl.dram.bwInstRead::total         158061                       # Instruction read bandwidth from this memory ((Byte/Second))
system.mem_ctrl.dram.bwWrite::writebacks   1044738991                       # Write bandwidth from this memory ((Byte/Second))
system.mem_ctrl.dram.bwWrite::total        1044738991                       # Write bandwidth from this memory ((Byte/Second))
system.mem_ctrl.dram.bwTotal::writebacks   1044738991                       # Total bandwidth to/from this memory ((Byte/Second))
system.mem_ctrl.dram.bwTotal::cpu.inst         158061                       # Total bandwidth to/from this memory ((Byte/Second))
system.mem_ctrl.dram.bwTotal::cpu.data      521263228                       # Total bandwidth to/from this memory ((Byte/Second))
system.mem_ctrl.dram.bwTotal::cpu.dcache.prefetcher    522800454                       # Total bandwidth to/from this memory ((Byte/Second))
system.mem_ctrl.dram.bwTotal::l2cache.prefetcher      1391906                       # Total bandwidth to/from this memory ((Byte/Second))
system.mem_ctrl.dram.bwTotal::total        2090352641                       # Total bandwidth to/from this memory ((Byte/Second))
system.mem_ctrl.dram.readBursts               6482941                       # Number of DRAM read bursts (Count)
system.mem_ctrl.dram.writeBursts              6477486                       # Number of DRAM write bursts (Count)
system.mem_ctrl.dram.perBankRdBursts::0        405127                       # Per bank write bursts (Count)
system.mem_ctrl.dram.perBankRdBursts::1        405066                       # Per bank write bursts (Count)
system.mem_ctrl.dram.perBankRdBursts::2        405053                       # Per bank write bursts (Count)
system.mem_ctrl.dram.perBankRdBursts::3        405235                       # Per bank write bursts (Count)
system.mem_ctrl.dram.perBankRdBursts::4        405291                       # Per bank write bursts (Count)
system.mem_ctrl.dram.perBankRdBursts::5        405246                       # Per bank write bursts (Count)
system.mem_ctrl.dram.perBankRdBursts::6        405185                       # Per bank write bursts (Count)
system.mem_ctrl.dram.perBankRdBursts::7        405033                       # Per bank write bursts (Count)
system.mem_ctrl.dram.perBankRdBursts::8        404893                       # Per bank write bursts (Count)
system.mem_ctrl.dram.perBankRdBursts::9        405170                       # Per bank write bursts (Count)
system.mem_ctrl.dram.perBankRdBursts::10       405275                       # Per bank write bursts (Count)
system.mem_ctrl.dram.perBankRdBursts::11       405338                       # Per bank write bursts (Count)
system.mem_ctrl.dram.perBankRdBursts::12       405139                       # Per bank write bursts (Count)
system.mem_ctrl.dram.perBankRdBursts::13       405381                       # Per bank write bursts (Count)
system.mem_ctrl.dram.perBankRdBursts::14       405252                       # Per bank write bursts (Count)
system.mem_ctrl.dram.perBankRdBursts::15       405257                       # Per bank write bursts (Count)
system.mem_ctrl.dram.perBankWrBursts::0        404736                       # Per bank write bursts (Count)
system.mem_ctrl.dram.perBankWrBursts::1        404748                       # Per bank write bursts (Count)
system.mem_ctrl.dram.perBankWrBursts::2        404764                       # Per bank write bursts (Count)
system.mem_ctrl.dram.perBankWrBursts::3        404865                       # Per bank write bursts (Count)
system.mem_ctrl.dram.perBankWrBursts::4        404880                       # Per bank write bursts (Count)
system.mem_ctrl.dram.perBankWrBursts::5        404863                       # Per bank write bursts (Count)
system.mem_ctrl.dram.perBankWrBursts::6        404882                       # Per bank write bursts (Count)
system.mem_ctrl.dram.perBankWrBursts::7        404656                       # Per bank write bursts (Count)
system.mem_ctrl.dram.perBankWrBursts::8        404592                       # Per bank write bursts (Count)
system.mem_ctrl.dram.perBankWrBursts::9        404815                       # Per bank write bursts (Count)
system.mem_ctrl.dram.perBankWrBursts::10       404936                       # Per bank write bursts (Count)
system.mem_ctrl.dram.perBankWrBursts::11       405028                       # Per bank write bursts (Count)
system.mem_ctrl.dram.perBankWrBursts::12       404836                       # Per bank write bursts (Count)
system.mem_ctrl.dram.perBankWrBursts::13       405036                       # Per bank write bursts (Count)
system.mem_ctrl.dram.perBankWrBursts::14       404931                       # Per bank write bursts (Count)
system.mem_ctrl.dram.perBankWrBursts::15       404918                       # Per bank write bursts (Count)
system.mem_ctrl.dram.totQLat             123644219407                       # Total ticks spent queuing (Tick)
system.mem_ctrl.dram.totBusLat            32414705000                       # Total ticks spent in databus transfers (Tick)
system.mem_ctrl.dram.totMemAccLat        245199363157                       # Total ticks spent from burst creation until serviced by the DRAM (Tick)
system.mem_ctrl.dram.avgQLat                 19072.24                       # Average queueing delay per DRAM burst ((Tick/Count))
system.mem_ctrl.dram.avgBusLat                5000.00                       # Average bus latency per DRAM burst ((Tick/Count))
system.mem_ctrl.dram.avgMemAccLat            37822.24                       # Average memory access latency per DRAM burst ((Tick/Count))
system.mem_ctrl.dram.readRowHits              6001743                       # Number of row buffer hits during reads (Count)
system.mem_ctrl.dram.writeRowHits             6010470                       # Number of row buffer hits during writes (Count)
system.mem_ctrl.dram.readRowHitRate             92.58                       # Row buffer hit rate for reads (Ratio)
system.mem_ctrl.dram.writeRowHitRate            92.79                       # Row buffer hit rate for writes (Ratio)
system.mem_ctrl.dram.bytesPerActivate::samples       948212                       # Bytes accessed per row activation (Byte)
system.mem_ctrl.dram.bytesPerActivate::mean   874.768900                       # Bytes accessed per row activation (Byte)
system.mem_ctrl.dram.bytesPerActivate::gmean   757.886214                       # Bytes accessed per row activation (Byte)
system.mem_ctrl.dram.bytesPerActivate::stdev   295.230679                       # Bytes accessed per row activation (Byte)
system.mem_ctrl.dram.bytesPerActivate::0-127        34657      3.65%      3.65% # Bytes accessed per row activation (Byte)
system.mem_ctrl.dram.bytesPerActivate::128-255        53434      5.64%      9.29% # Bytes accessed per row activation (Byte)
system.mem_ctrl.dram.bytesPerActivate::256-383        33135      3.49%     12.78% # Bytes accessed per row activation (Byte)
system.mem_ctrl.dram.bytesPerActivate::384-511        15385      1.62%     14.41% # Bytes accessed per row activation (Byte)
system.mem_ctrl.dram.bytesPerActivate::512-639         6795      0.72%     15.12% # Bytes accessed per row activation (Byte)
system.mem_ctrl.dram.bytesPerActivate::640-767        38146      4.02%     19.15% # Bytes accessed per row activation (Byte)
system.mem_ctrl.dram.bytesPerActivate::768-895        31697      3.34%     22.49% # Bytes accessed per row activation (Byte)
system.mem_ctrl.dram.bytesPerActivate::896-1023        49313      5.20%     27.69% # Bytes accessed per row activation (Byte)
system.mem_ctrl.dram.bytesPerActivate::1024-1151       685650     72.31%    100.00% # Bytes accessed per row activation (Byte)
system.mem_ctrl.dram.bytesPerActivate::total       948212                       # Bytes accessed per row activation (Byte)
system.mem_ctrl.dram.bytesRead              414908224                       # Total bytes read (Byte)
system.mem_ctrl.dram.bytesWritten           414559104                       # Total bytes written (Byte)
system.mem_ctrl.dram.avgRdBW              1045.613650                       # Average DRAM read bandwidth in MiBytes/s ((Byte/Second))
system.mem_ctrl.dram.avgWrBW              1044.733830                       # Average DRAM write bandwidth in MiBytes/s ((Byte/Second))
system.mem_ctrl.dram.peakBW                  12800.00                       # Theoretical peak bandwidth in MiByte/s ((Byte/Second))
system.mem_ctrl.dram.busUtil                    16.33                       # Data bus utilization in percentage (Ratio)
system.mem_ctrl.dram.busUtilRead                 8.17                       # Data bus utilization in percentage for reads (Ratio)
system.mem_ctrl.dram.busUtilWrite                8.16                       # Data bus utilization in percentage for writes (Ratio)
system.mem_ctrl.dram.pageHitRate                92.68                       # Row buffer hit rate, read and write combined (Ratio)
system.mem_ctrl.dram.power_state.pwrStateResidencyTicks::UNDEFINED 396808347000                       # Cumulative time (in ticks) in various power states (Tick)
system.mem_ctrl.dram.rank0.actEnergy       3385909380                       # Energy for activate commands per rank (pJ) (Joule)
system.mem_ctrl.dram.rank0.preEnergy       1799653515                       # Energy for precharge commands per rank (pJ) (Joule)
system.mem_ctrl.dram.rank0.readEnergy     23142425040                       # Energy for read commands per rank (pJ) (Joule)
system.mem_ctrl.dram.rank0.writeEnergy    16904416680                       # Energy for write commands per rank (pJ) (Joule)
system.mem_ctrl.dram.rank0.refreshEnergy 31323283680.000004                       # Energy for refresh commands per rank (pJ) (Joule)
system.mem_ctrl.dram.rank0.actBackEnergy  95028538950                       # Energy for active background per rank (pJ) (Joule)
system.mem_ctrl.dram.rank0.preBackEnergy  72350372640                       # Energy for precharge background per rank (pJ) (Joule)
system.mem_ctrl.dram.rank0.actPowerDownEnergy            0                       # Energy for active power-down per rank (pJ) (Joule)
system.mem_ctrl.dram.rank0.prePowerDownEnergy            0                       # Energy for precharge power-down per rank (pJ) (Joule)
system.mem_ctrl.dram.rank0.selfRefreshEnergy            0                       # Energy for self refresh per rank (pJ) (Joule)
system.mem_ctrl.dram.rank0.totalEnergy   243934599885                       # Total energy per rank (pJ) (Joule)
system.mem_ctrl.dram.rank0.averagePower    614.741604                       # Core power per rank (mW) (Watt)
system.mem_ctrl.dram.rank0.totalIdleTime            0                       # Total Idle time Per DRAM Rank (Tick)
system.mem_ctrl.dram.rank0.pwrStateTime::IDLE 184370112081                       # Time in different power states (Tick)
system.mem_ctrl.dram.rank0.pwrStateTime::REF  13250120000                       # Time in different power states (Tick)
system.mem_ctrl.dram.rank0.pwrStateTime::SREF            0                       # Time in different power states (Tick)
system.mem_ctrl.dram.rank0.pwrStateTime::PRE_PDN            0                       # Time in different power states (Tick)
system.mem_ctrl.dram.rank0.pwrStateTime::ACT 199188114919                       # Time in different power states (Tick)
system.mem_ctrl.dram.rank0.pwrStateTime::ACT_PDN            0                       # Time in different power states (Tick)
system.mem_ctrl.dram.rank1.actEnergy       3384338580                       # Energy for activate commands per rank (pJ) (Joule)
system.mem_ctrl.dram.rank1.preEnergy       1798811025                       # Energy for precharge commands per rank (pJ) (Joule)
system.mem_ctrl.dram.rank1.readEnergy     23145773700                       # Energy for read commands per rank (pJ) (Joule)
system.mem_ctrl.dram.rank1.writeEnergy    16908060240                       # Energy for write commands per rank (pJ) (Joule)
system.mem_ctrl.dram.rank1.refreshEnergy 31323283680.000004                       # Energy for refresh commands per rank (pJ) (Joule)
system.mem_ctrl.dram.rank1.actBackEnergy  95419275090                       # Energy for active background per rank (pJ) (Joule)
system.mem_ctrl.dram.rank1.preBackEnergy  72021331680                       # Energy for precharge background per rank (pJ) (Joule)
system.mem_ctrl.dram.rank1.actPowerDownEnergy            0                       # Energy for active power-down per rank (pJ) (Joule)
system.mem_ctrl.dram.rank1.prePowerDownEnergy            0                       # Energy for precharge power-down per rank (pJ) (Joule)
system.mem_ctrl.dram.rank1.selfRefreshEnergy            0                       # Energy for self refresh per rank (pJ) (Joule)
system.mem_ctrl.dram.rank1.totalEnergy   244000873995                       # Total energy per rank (pJ) (Joule)
system.mem_ctrl.dram.rank1.averagePower    614.908622                       # Core power per rank (mW) (Watt)
system.mem_ctrl.dram.rank1.totalIdleTime            0                       # Total Idle time Per DRAM Rank (Tick)
system.mem_ctrl.dram.rank1.pwrStateTime::IDLE 183490051640                       # Time in different power states (Tick)
system.mem_ctrl.dram.rank1.pwrStateTime::REF  13250120000                       # Time in different power states (Tick)
system.mem_ctrl.dram.rank1.pwrStateTime::SREF            0                       # Time in different power states (Tick)
system.mem_ctrl.dram.rank1.pwrStateTime::PRE_PDN            0                       # Time in different power states (Tick)
system.mem_ctrl.dram.rank1.pwrStateTime::ACT 200068175360                       # Time in different power states (Tick)
system.mem_ctrl.dram.rank1.pwrStateTime::ACT_PDN            0                       # Time in different power states (Tick)
system.mem_ctrl.power_state.pwrStateResidencyTicks::UNDEFINED 396808347000                       # Cumulative time (in ticks) in various power states (Tick)
system.membus.transDist::ReadResp             3251386                       # Transaction distribution (Count)
system.membus.transDist::WritebackDirty       6477518                       # Transaction distribution (Count)
system.membus.transDist::CleanEvict               493                       # Transaction distribution (Count)
system.membus.transDist::ReadExReq            3231555                       # Transaction distribution (Count)
system.membus.transDist::ReadExResp           3231555                       # Transaction distribution (Count)
system.membus.transDist::ReadSharedReq        3251386                       # Transaction distribution (Count)
system.membus.pktCount_system.l2cache.mem_side_port::system.mem_ctrl.port     19443893                       # Packet count per connected requestor and responder (Count)
system.membus.pktCount_system.l2cache.mem_side_port::total     19443893                       # Packet count per connected requestor and responder (Count)
system.membus.pktCount::total                19443893                       # Packet count per connected requestor and responder (Count)
system.membus.pktSize_system.l2cache.mem_side_port::system.mem_ctrl.port    829469376                       # Cumulative packet size per connected requestor and responder (Byte)
system.membus.pktSize_system.l2cache.mem_side_port::total    829469376                       # Cumulative packet size per connected requestor and responder (Byte)
system.membus.pktSize::total                829469376                       # Cumulative packet size per connected requestor and responder (Byte)
system.membus.snoops                                0                       # Total snoops (Count)
system.membus.snoopTraffic                          0                       # Total snoop traffic (Byte)
system.membus.snoopFanout::samples            6482941                       # Request fanout histogram (Count)
system.membus.snoopFanout::mean                     0                       # Request fanout histogram (Count)
system.membus.snoopFanout::stdev                    0                       # Request fanout histogram (Count)
system.membus.snoopFanout::underflows               0      0.00%      0.00% # Request fanout histogram (Count)
system.membus.snoopFanout::0                  6482941    100.00%    100.00% # Request fanout histogram (Count)
system.membus.snoopFanout::1                        0      0.00%    100.00% # Request fanout histogram (Count)
system.membus.snoopFanout::overflows                0      0.00%    100.00% # Request fanout histogram (Count)
system.membus.snoopFanout::min_value                0                       # Request fanout histogram (Count)
system.membus.snoopFanout::max_value                0                       # Request fanout histogram (Count)
system.membus.snoopFanout::total              6482941                       # Request fanout histogram (Count)
system.membus.power_state.pwrStateResidencyTicks::UNDEFINED 396808347000                       # Cumulative time (in ticks) in various power states (Tick)
system.membus.reqLayer2.occupancy         38873523704                       # Layer occupancy (ticks) (Tick)
system.membus.reqLayer2.utilization               0.1                       # Layer utilization (Ratio)
system.membus.respLayer0.occupancy        33642032658                       # Layer occupancy (ticks) (Tick)
system.membus.respLayer0.utilization              0.1                       # Layer utilization (Ratio)
system.membus.snoop_filter.totRequests       12960952                       # Total number of requests made to the snoop filter. (Count)
system.membus.snoop_filter.hitSingleRequests      6478011                       # Number of requests hitting in the snoop filter with a single holder of the requested data. (Count)
system.membus.snoop_filter.hitMultiRequests            0                       # Number of requests hitting in the snoop filter with multiple (>1) holders of the requested data. (Count)
system.membus.snoop_filter.totSnoops                0                       # Total number of snoops made to the snoop filter. (Count)
system.membus.snoop_filter.hitSingleSnoops            0                       # Number of snoops hitting in the snoop filter with a single holder of the requested data. (Count)
system.membus.snoop_filter.hitMultiSnoops            0                       # Number of snoops hitting in the snoop filter with multiple (>1) holders of the requested data. (Count)
system.workload.inst.arm                            0                       # number of arm instructions executed (Count)
system.workload.inst.quiesce                        0                       # number of quiesce instructions executed (Count)

---------- End Simulation Statistics   ----------
