
---------- Begin Simulation Statistics ----------
simSeconds                                   0.095162                       # Number of seconds simulated (Second)
simTicks                                  95162008000                       # Number of ticks simulated (Tick)
finalTick                                 95162008000                       # Number of ticks from beginning of simulation (restored from checkpoints and never reset) (Tick)
simFreq                                  1000000000000                       # The number of ticks per simulated second ((Tick/Second))
hostSeconds                                    327.97                       # Real time elapsed on the host (Second)
hostTickRate                                290158606                       # The number of ticks simulated per host second (ticks/s) ((Tick/Second))
hostMemory                                    8528480                       # Number of bytes of host memory used (Byte)
simInsts                                     50000001                       # Number of instructions simulated (Count)
simOps                                       58297585                       # Number of ops (including micro ops) simulated (Count)
hostInstRate                                   152455                       # Simulator instruction rate (inst/s) ((Count/Second))
hostOpRate                                     177755                       # Simulator op (including micro ops) rate (op/s) ((Count/Second))
system.clk_domain.clock                          1000                       # Clock period in ticks (Tick)
system.clk_domain.voltage_domain.voltage            1                       # Voltage in Volts (Volt)
system.cpu.numCycles                         95162009                       # Number of cpu cycles simulated (Cycle)
system.cpu.numWorkItemsStarted                      0                       # Number of work items this cpu started (Count)
system.cpu.numWorkItemsCompleted                    0                       # Number of work items this cpu completed (Count)
system.cpu.instsAdded                        66411342                       # Number of instructions added to the IQ (excludes non-spec) (Count)
system.cpu.nonSpecInstsAdded                      218                       # Number of non-speculative instructions added to the IQ (Count)
system.cpu.instsIssued                       66192873                       # Number of instructions issued (Count)
system.cpu.squashedInstsIssued                    273                       # Number of squashed instructions issued (Count)
system.cpu.squashedInstsExamined              8113924                       # Number of squashed instructions iterated over during squash; mainly for profiling (Count)
system.cpu.squashedOperandsExamined           1696888                       # Number of squashed operands that are examined and possibly removed from graph (Count)
system.cpu.squashedNonSpecRemoved                 194                       # Number of squashed non-spec instructions that were removed (Count)
system.cpu.numIssuedDist::samples            95135957                       # Number of insts issued each cycle (Count)
system.cpu.numIssuedDist::mean               0.695771                       # Number of insts issued each cycle (Count)
system.cpu.numIssuedDist::stdev              1.506499                       # Number of insts issued each cycle (Count)
system.cpu.numIssuedDist::underflows                0      0.00%      0.00% # Number of insts issued each cycle (Count)
system.cpu.numIssuedDist::0                  74141402     77.93%     77.93% # Number of insts issued each cycle (Count)
system.cpu.numIssuedDist::1                   4415819      4.64%     82.57% # Number of insts issued each cycle (Count)
system.cpu.numIssuedDist::2                   3547912      3.73%     86.30% # Number of insts issued each cycle (Count)
system.cpu.numIssuedDist::3                   3302750      3.47%     89.77% # Number of insts issued each cycle (Count)
system.cpu.numIssuedDist::4                   5978550      6.28%     96.06% # Number of insts issued each cycle (Count)
system.cpu.numIssuedDist::5                   2112864      2.22%     98.28% # Number of insts issued each cycle (Count)
system.cpu.numIssuedDist::6                   1197667      1.26%     99.54% # Number of insts issued each cycle (Count)
system.cpu.numIssuedDist::7                    403486      0.42%     99.96% # Number of insts issued each cycle (Count)
system.cpu.numIssuedDist::8                     35507      0.04%    100.00% # Number of insts issued each cycle (Count)
system.cpu.numIssuedDist::overflows                 0      0.00%    100.00% # Number of insts issued each cycle (Count)
system.cpu.numIssuedDist::min_value                 0                       # Number of insts issued each cycle (Count)
system.cpu.numIssuedDist::max_value                 8                       # Number of insts issued each cycle (Count)
system.cpu.numIssuedDist::total              95135957                       # Number of insts issued each cycle (Count)
system.cpu.statFuBusy::No_OpClass                   0      0.00%      0.00% # attempts to use FU when none available (Count)
system.cpu.statFuBusy::IntAlu                    3116     96.50%     96.50% # attempts to use FU when none available (Count)
system.cpu.statFuBusy::IntMult                      0      0.00%     96.50% # attempts to use FU when none available (Count)
system.cpu.statFuBusy::IntDiv                       0      0.00%     96.50% # attempts to use FU when none available (Count)
system.cpu.statFuBusy::FloatAdd                     0      0.00%     96.50% # attempts to use FU when none available (Count)
system.cpu.statFuBusy::FloatCmp                     0      0.00%     96.50% # attempts to use FU when none available (Count)
system.cpu.statFuBusy::FloatCvt                     0      0.00%     96.50% # attempts to use FU when none available (Count)
system.cpu.statFuBusy::FloatMult                    0      0.00%     96.50% # attempts to use FU when none available (Count)
system.cpu.statFuBusy::FloatMultAcc                 0      0.00%     96.50% # attempts to use FU when none available (Count)
system.cpu.statFuBusy::FloatDiv                     0      0.00%     96.50% # attempts to use FU when none available (Count)
system.cpu.statFuBusy::FloatMisc                    0      0.00%     96.50% # attempts to use FU when none available (Count)
system.cpu.statFuBusy::FloatSqrt                    0      0.00%     96.50% # attempts to use FU when none available (Count)
system.cpu.statFuBusy::SimdAdd                      0      0.00%     96.50% # attempts to use FU when none available (Count)
system.cpu.statFuBusy::SimdAddAcc                   0      0.00%     96.50% # attempts to use FU when none available (Count)
system.cpu.statFuBusy::SimdAlu                     27      0.84%     97.34% # attempts to use FU when none available (Count)
system.cpu.statFuBusy::SimdCmp                      0      0.00%     97.34% # attempts to use FU when none available (Count)
system.cpu.statFuBusy::SimdCvt                      4      0.12%     97.46% # attempts to use FU when none available (Count)
system.cpu.statFuBusy::SimdMisc                     2      0.06%     97.52% # attempts to use FU when none available (Count)
system.cpu.statFuBusy::SimdMult                     0      0.00%     97.52% # attempts to use FU when none available (Count)
system.cpu.statFuBusy::SimdMultAcc                  0      0.00%     97.52% # attempts to use FU when none available (Count)
system.cpu.statFuBusy::SimdShift                    0      0.00%     97.52% # attempts to use FU when none available (Count)
system.cpu.statFuBusy::SimdShiftAcc                 0      0.00%     97.52% # attempts to use FU when none available (Count)
system.cpu.statFuBusy::SimdDiv                      0      0.00%     97.52% # attempts to use FU when none available (Count)
system.cpu.statFuBusy::SimdSqrt                     0      0.00%     97.52% # attempts to use FU when none available (Count)
system.cpu.statFuBusy::SimdFloatAdd                 0      0.00%     97.52% # attempts to use FU when none available (Count)
system.cpu.statFuBusy::SimdFloatAlu                 0      0.00%     97.52% # attempts to use FU when none available (Count)
system.cpu.statFuBusy::SimdFloatCmp                 0      0.00%     97.52% # attempts to use FU when none available (Count)
system.cpu.statFuBusy::SimdFloatCvt                 0      0.00%     97.52% # attempts to use FU when none available (Count)
system.cpu.statFuBusy::SimdFloatDiv                 0      0.00%     97.52% # attempts to use FU when none available (Count)
system.cpu.statFuBusy::SimdFloatMisc                0      0.00%     97.52% # attempts to use FU when none available (Count)
system.cpu.statFuBusy::SimdFloatMult                0      0.00%     97.52% # attempts to use FU when none available (Count)
system.cpu.statFuBusy::SimdFloatMultAcc             0      0.00%     97.52% # attempts to use FU when none available (Count)
system.cpu.statFuBusy::SimdFloatSqrt                0      0.00%     97.52% # attempts to use FU when none available (Count)
system.cpu.statFuBusy::SimdReduceAdd                0      0.00%     97.52% # attempts to use FU when none available (Count)
system.cpu.statFuBusy::SimdReduceAlu                0      0.00%     97.52% # attempts to use FU when none available (Count)
system.cpu.statFuBusy::SimdReduceCmp                0      0.00%     97.52% # attempts to use FU when none available (Count)
system.cpu.statFuBusy::SimdFloatReduceAdd            0      0.00%     97.52% # attempts to use FU when none available (Count)
system.cpu.statFuBusy::SimdFloatReduceCmp            0      0.00%     97.52% # attempts to use FU when none available (Count)
system.cpu.statFuBusy::SimdAes                      0      0.00%     97.52% # attempts to use FU when none available (Count)
system.cpu.statFuBusy::SimdAesMix                   0      0.00%     97.52% # attempts to use FU when none available (Count)
system.cpu.statFuBusy::SimdSha1Hash                 0      0.00%     97.52% # attempts to use FU when none available (Count)
system.cpu.statFuBusy::SimdSha1Hash2                0      0.00%     97.52% # attempts to use FU when none available (Count)
system.cpu.statFuBusy::SimdSha256Hash               0      0.00%     97.52% # attempts to use FU when none available (Count)
system.cpu.statFuBusy::SimdSha256Hash2              0      0.00%     97.52% # attempts to use FU when none available (Count)
system.cpu.statFuBusy::SimdShaSigma2                0      0.00%     97.52% # attempts to use FU when none available (Count)
system.cpu.statFuBusy::SimdShaSigma3                0      0.00%     97.52% # attempts to use FU when none available (Count)
system.cpu.statFuBusy::SimdPredAlu                  0      0.00%     97.52% # attempts to use FU when none available (Count)
system.cpu.statFuBusy::MemRead                     17      0.53%     98.05% # attempts to use FU when none available (Count)
system.cpu.statFuBusy::MemWrite                    41      1.27%     99.32% # attempts to use FU when none available (Count)
system.cpu.statFuBusy::FloatMemRead                 8      0.25%     99.57% # attempts to use FU when none available (Count)
system.cpu.statFuBusy::FloatMemWrite               14      0.43%    100.00% # attempts to use FU when none available (Count)
system.cpu.statFuBusy::IprAccess                    0      0.00%    100.00% # attempts to use FU when none available (Count)
system.cpu.statFuBusy::InstPrefetch                 0      0.00%    100.00% # attempts to use FU when none available (Count)
system.cpu.statIssuedInstType_0::No_OpClass          357      0.00%      0.00% # Number of instructions issued per FU type, per thread (Count)
system.cpu.statIssuedInstType_0::IntAlu      43879342     66.29%     66.29% # Number of instructions issued per FU type, per thread (Count)
system.cpu.statIssuedInstType_0::IntMult           30      0.00%     66.29% # Number of instructions issued per FU type, per thread (Count)
system.cpu.statIssuedInstType_0::IntDiv            72      0.00%     66.29% # Number of instructions issued per FU type, per thread (Count)
system.cpu.statIssuedInstType_0::FloatAdd           22      0.00%     66.29% # Number of instructions issued per FU type, per thread (Count)
system.cpu.statIssuedInstType_0::FloatCmp            0      0.00%     66.29% # Number of instructions issued per FU type, per thread (Count)
system.cpu.statIssuedInstType_0::FloatCvt            0      0.00%     66.29% # Number of instructions issued per FU type, per thread (Count)
system.cpu.statIssuedInstType_0::FloatMult            0      0.00%     66.29% # Number of instructions issued per FU type, per thread (Count)
system.cpu.statIssuedInstType_0::FloatMultAcc            0      0.00%     66.29% # Number of instructions issued per FU type, per thread (Count)
system.cpu.statIssuedInstType_0::FloatDiv            0      0.00%     66.29% # Number of instructions issued per FU type, per thread (Count)
system.cpu.statIssuedInstType_0::FloatMisc            0      0.00%     66.29% # Number of instructions issued per FU type, per thread (Count)
system.cpu.statIssuedInstType_0::FloatSqrt            0      0.00%     66.29% # Number of instructions issued per FU type, per thread (Count)
system.cpu.statIssuedInstType_0::SimdAdd            0      0.00%     66.29% # Number of instructions issued per FU type, per thread (Count)
system.cpu.statIssuedInstType_0::SimdAddAcc            0      0.00%     66.29% # Number of instructions issued per FU type, per thread (Count)
system.cpu.statIssuedInstType_0::SimdAlu          198      0.00%     66.29% # Number of instructions issued per FU type, per thread (Count)
system.cpu.statIssuedInstType_0::SimdCmp            0      0.00%     66.29% # Number of instructions issued per FU type, per thread (Count)
system.cpu.statIssuedInstType_0::SimdCvt          158      0.00%     66.29% # Number of instructions issued per FU type, per thread (Count)
system.cpu.statIssuedInstType_0::SimdMisc          222      0.00%     66.29% # Number of instructions issued per FU type, per thread (Count)
system.cpu.statIssuedInstType_0::SimdMult            0      0.00%     66.29% # Number of instructions issued per FU type, per thread (Count)
system.cpu.statIssuedInstType_0::SimdMultAcc            0      0.00%     66.29% # Number of instructions issued per FU type, per thread (Count)
system.cpu.statIssuedInstType_0::SimdShift            0      0.00%     66.29% # Number of instructions issued per FU type, per thread (Count)
system.cpu.statIssuedInstType_0::SimdShiftAcc            0      0.00%     66.29% # Number of instructions issued per FU type, per thread (Count)
system.cpu.statIssuedInstType_0::SimdDiv            0      0.00%     66.29% # Number of instructions issued per FU type, per thread (Count)
system.cpu.statIssuedInstType_0::SimdSqrt            0      0.00%     66.29% # Number of instructions issued per FU type, per thread (Count)
system.cpu.statIssuedInstType_0::SimdFloatAdd            0      0.00%     66.29% # Number of instructions issued per FU type, per thread (Count)
system.cpu.statIssuedInstType_0::SimdFloatAlu            0      0.00%     66.29% # Number of instructions issued per FU type, per thread (Count)
system.cpu.statIssuedInstType_0::SimdFloatCmp            0      0.00%     66.29% # Number of instructions issued per FU type, per thread (Count)
system.cpu.statIssuedInstType_0::SimdFloatCvt            2      0.00%     66.29% # Number of instructions issued per FU type, per thread (Count)
system.cpu.statIssuedInstType_0::SimdFloatDiv            0      0.00%     66.29% # Number of instructions issued per FU type, per thread (Count)
system.cpu.statIssuedInstType_0::SimdFloatMisc            0      0.00%     66.29% # Number of instructions issued per FU type, per thread (Count)
system.cpu.statIssuedInstType_0::SimdFloatMult            0      0.00%     66.29% # Number of instructions issued per FU type, per thread (Count)
system.cpu.statIssuedInstType_0::SimdFloatMultAcc            0      0.00%     66.29% # Number of instructions issued per FU type, per thread (Count)
system.cpu.statIssuedInstType_0::SimdFloatSqrt            0      0.00%     66.29% # Number of instructions issued per FU type, per thread (Count)
system.cpu.statIssuedInstType_0::SimdReduceAdd            0      0.00%     66.29% # Number of instructions issued per FU type, per thread (Count)
system.cpu.statIssuedInstType_0::SimdReduceAlu            0      0.00%     66.29% # Number of instructions issued per FU type, per thread (Count)
system.cpu.statIssuedInstType_0::SimdReduceCmp            0      0.00%     66.29% # Number of instructions issued per FU type, per thread (Count)
system.cpu.statIssuedInstType_0::SimdFloatReduceAdd            0      0.00%     66.29% # Number of instructions issued per FU type, per thread (Count)
system.cpu.statIssuedInstType_0::SimdFloatReduceCmp            0      0.00%     66.29% # Number of instructions issued per FU type, per thread (Count)
system.cpu.statIssuedInstType_0::SimdAes            0      0.00%     66.29% # Number of instructions issued per FU type, per thread (Count)
system.cpu.statIssuedInstType_0::SimdAesMix            0      0.00%     66.29% # Number of instructions issued per FU type, per thread (Count)
system.cpu.statIssuedInstType_0::SimdSha1Hash            0      0.00%     66.29% # Number of instructions issued per FU type, per thread (Count)
system.cpu.statIssuedInstType_0::SimdSha1Hash2            0      0.00%     66.29% # Number of instructions issued per FU type, per thread (Count)
system.cpu.statIssuedInstType_0::SimdSha256Hash            0      0.00%     66.29% # Number of instructions issued per FU type, per thread (Count)
system.cpu.statIssuedInstType_0::SimdSha256Hash2            0      0.00%     66.29% # Number of instructions issued per FU type, per thread (Count)
system.cpu.statIssuedInstType_0::SimdShaSigma2            0      0.00%     66.29% # Number of instructions issued per FU type, per thread (Count)
system.cpu.statIssuedInstType_0::SimdShaSigma3            0      0.00%     66.29% # Number of instructions issued per FU type, per thread (Count)
system.cpu.statIssuedInstType_0::SimdPredAlu            0      0.00%     66.29% # Number of instructions issued per FU type, per thread (Count)
system.cpu.statIssuedInstType_0::MemRead     14644218     22.12%     88.42% # Number of instructions issued per FU type, per thread (Count)
system.cpu.statIssuedInstType_0::MemWrite      7667925     11.58%    100.00% # Number of instructions issued per FU type, per thread (Count)
system.cpu.statIssuedInstType_0::FloatMemRead          130      0.00%    100.00% # Number of instructions issued per FU type, per thread (Count)
system.cpu.statIssuedInstType_0::FloatMemWrite          197      0.00%    100.00% # Number of instructions issued per FU type, per thread (Count)
system.cpu.statIssuedInstType_0::IprAccess            0      0.00%    100.00% # Number of instructions issued per FU type, per thread (Count)
system.cpu.statIssuedInstType_0::InstPrefetch            0      0.00%    100.00% # Number of instructions issued per FU type, per thread (Count)
system.cpu.statIssuedInstType_0::total       66192873                       # Number of instructions issued per FU type, per thread (Count)
system.cpu.issueRate                         0.695581                       # Inst issue rate ((Count/Cycle))
system.cpu.fuBusy                                3229                       # FU busy when requested (Count)
system.cpu.fuBusyRate                        0.000049                       # FU busy rate (busy events/executed inst) ((Count/Count))
system.cpu.intInstQueueReads                227523071                       # Number of integer instruction queue reads (Count)
system.cpu.intInstQueueWrites                74523918                       # Number of integer instruction queue writes (Count)
system.cpu.intInstQueueWakeupAccesses        65949849                       # Number of integer instruction queue wakeup accesses (Count)
system.cpu.fpInstQueueReads                      2129                       # Number of floating instruction queue reads (Count)
system.cpu.fpInstQueueWrites                     1745                       # Number of floating instruction queue writes (Count)
system.cpu.fpInstQueueWakeupAccesses              958                       # Number of floating instruction queue wakeup accesses (Count)
system.cpu.vecInstQueueReads                        0                       # Number of vector instruction queue reads (Count)
system.cpu.vecInstQueueWrites                       0                       # Number of vector instruction queue writes (Count)
system.cpu.vecInstQueueWakeupAccesses               0                       # Number of vector instruction queue wakeup accesses (Count)
system.cpu.intAluAccesses                    66194693                       # Number of integer alu accesses (Count)
system.cpu.fpAluAccesses                         1052                       # Number of floating point alu accesses (Count)
system.cpu.vecAluAccesses                           0                       # Number of vector alu accesses (Count)
system.cpu.numInsts                          66143709                       # Number of executed instructions (Count)
system.cpu.numLoadInsts                      14636698                       # Number of load instructions executed (Count)
system.cpu.numSquashedInsts                     49159                       # Number of squashed instructions skipped in execute (Count)
system.cpu.numSwp                                   0                       # Number of swp insts executed (Count)
system.cpu.numNop                                   0                       # Number of nop insts executed (Count)
system.cpu.numRefs                           22292466                       # Number of memory reference insts executed (Count)
system.cpu.numBranches                        1024153                       # Number of branches executed (Count)
system.cpu.numStoreInsts                      7655768                       # Number of stores executed (Count)
system.cpu.numRate                           0.695064                       # Inst execution rate ((Count/Cycle))
system.cpu.timesIdled                             369                       # Number of times that the entire CPU went into an idle state and unscheduled itself (Count)
system.cpu.idleCycles                           26052                       # Total number of cycles that the CPU has spent unscheduled due to idling (Cycle)
system.cpu.committedInsts                    50000001                       # Number of Instructions Simulated (Count)
system.cpu.committedOps                      58297585                       # Number of Ops (including micro ops) Simulated (Count)
system.cpu.cpi                               1.903240                       # CPI: Cycles Per Instruction ((Cycle/Count))
system.cpu.totalCpi                          1.903240                       # CPI: Total CPI of All Threads ((Cycle/Count))
system.cpu.ipc                               0.525420                       # IPC: Instructions Per Cycle ((Count/Cycle))
system.cpu.totalIpc                          0.525420                       # IPC: Total IPC of All Threads ((Count/Cycle))
system.cpu.intRegfileReads                   80912801                       # Number of integer regfile reads (Count)
system.cpu.intRegfileWrites                  57110024                       # Number of integer regfile writes (Count)
system.cpu.fpRegfileReads                        1545                       # Number of floating regfile reads (Count)
system.cpu.fpRegfileWrites                        657                       # Number of floating regfile writes (Count)
system.cpu.ccRegfileReads                     1753864                       # number of cc regfile reads (Count)
system.cpu.ccRegfileWrites                   25966150                       # number of cc regfile writes (Count)
system.cpu.miscRegfileReads                  24349799                       # number of misc regfile reads (Count)
system.cpu.MemDepUnit__0.insertedLoads       14652824                       # Number of loads inserted to the mem dependence unit. (Count)
system.cpu.MemDepUnit__0.insertedStores       7834864                       # Number of stores inserted to the mem dependence unit. (Count)
system.cpu.MemDepUnit__0.conflictingLoads       824086                       # Number of conflicting loads. (Count)
system.cpu.MemDepUnit__0.conflictingStores        18250                       # Number of conflicting stores. (Count)
system.cpu.MemDepUnit__1.insertedLoads              0                       # Number of loads inserted to the mem dependence unit. (Count)
system.cpu.MemDepUnit__1.insertedStores             0                       # Number of stores inserted to the mem dependence unit. (Count)
system.cpu.MemDepUnit__1.conflictingLoads            0                       # Number of conflicting loads. (Count)
system.cpu.MemDepUnit__1.conflictingStores            0                       # Number of conflicting stores. (Count)
system.cpu.MemDepUnit__2.insertedLoads              0                       # Number of loads inserted to the mem dependence unit. (Count)
system.cpu.MemDepUnit__2.insertedStores             0                       # Number of stores inserted to the mem dependence unit. (Count)
system.cpu.MemDepUnit__2.conflictingLoads            0                       # Number of conflicting loads. (Count)
system.cpu.MemDepUnit__2.conflictingStores            0                       # Number of conflicting stores. (Count)
system.cpu.MemDepUnit__3.insertedLoads              0                       # Number of loads inserted to the mem dependence unit. (Count)
system.cpu.MemDepUnit__3.insertedStores             0                       # Number of stores inserted to the mem dependence unit. (Count)
system.cpu.MemDepUnit__3.conflictingLoads            0                       # Number of conflicting loads. (Count)
system.cpu.MemDepUnit__3.conflictingStores            0                       # Number of conflicting stores. (Count)
system.cpu.branchPred.lookups                 2881352                       # Number of BP lookups (Count)
system.cpu.branchPred.condPredicted            964061                       # Number of conditional branches predicted (Count)
system.cpu.branchPred.condIncorrect            317963                       # Number of conditional branches incorrect (Count)
system.cpu.branchPred.BTBLookups              1281153                       # Number of BTB lookups (Count)
system.cpu.branchPred.BTBHits                 1280547                       # Number of BTB hits (Count)
system.cpu.branchPred.BTBHitRatio            0.999527                       # BTB Hit Ratio (Ratio)
system.cpu.branchPred.RASUsed                  635866                       # Number of times the RAS was used to get a target. (Count)
system.cpu.branchPred.RASIncorrect                  2                       # Number of incorrect RAS predictions. (Count)
system.cpu.branchPred.indirectLookups             272                       # Number of indirect predictor lookups. (Count)
system.cpu.branchPred.indirectHits                146                       # Number of indirect target hits. (Count)
system.cpu.branchPred.indirectMisses              126                       # Number of indirect misses. (Count)
system.cpu.branchPred.indirectMispredicted           76                       # Number of mispredicted indirect branches. (Count)
system.cpu.commit.commitSquashedInsts         8132602                       # The number of squashed insts skipped by commit (Count)
system.cpu.commit.commitNonSpecStalls              24                       # The number of times commit has been forced to stall to communicate backwards (Count)
system.cpu.commit.branchMispredicts            317602                       # The number of times a branch was mispredicted (Count)
system.cpu.commit.numCommittedDist::samples     93855743                       # Number of insts commited each cycle (Count)
system.cpu.commit.numCommittedDist::mean     0.621140                       # Number of insts commited each cycle (Count)
system.cpu.commit.numCommittedDist::stdev     1.563044                       # Number of insts commited each cycle (Count)
system.cpu.commit.numCommittedDist::underflows            0      0.00%      0.00% # Number of insts commited each cycle (Count)
system.cpu.commit.numCommittedDist::0        74278527     79.14%     79.14% # Number of insts commited each cycle (Count)
system.cpu.commit.numCommittedDist::1         4346476      4.63%     83.77% # Number of insts commited each cycle (Count)
system.cpu.commit.numCommittedDist::2         9525743     10.15%     93.92% # Number of insts commited each cycle (Count)
system.cpu.commit.numCommittedDist::3          158876      0.17%     94.09% # Number of insts commited each cycle (Count)
system.cpu.commit.numCommittedDist::4          888811      0.95%     95.04% # Number of insts commited each cycle (Count)
system.cpu.commit.numCommittedDist::5          866710      0.92%     95.96% # Number of insts commited each cycle (Count)
system.cpu.commit.numCommittedDist::6            1585      0.00%     95.96% # Number of insts commited each cycle (Count)
system.cpu.commit.numCommittedDist::7         3787429      4.04%    100.00% # Number of insts commited each cycle (Count)
system.cpu.commit.numCommittedDist::8            1586      0.00%    100.00% # Number of insts commited each cycle (Count)
system.cpu.commit.numCommittedDist::overflows            0      0.00%    100.00% # Number of insts commited each cycle (Count)
system.cpu.commit.numCommittedDist::min_value            0                       # Number of insts commited each cycle (Count)
system.cpu.commit.numCommittedDist::max_value            8                       # Number of insts commited each cycle (Count)
system.cpu.commit.numCommittedDist::total     93855743                       # Number of insts commited each cycle (Count)
system.cpu.commit.instsCommitted             50000001                       # Number of instructions committed (Count)
system.cpu.commit.opsCommitted               58297585                       # Number of ops (including micro ops) committed (Count)
system.cpu.commit.memRefs                    19938471                       # Number of memory references committed (Count)
system.cpu.commit.loads                      13189621                       # Number of loads committed (Count)
system.cpu.commit.amos                              0                       # Number of atomic instructions committed (Count)
system.cpu.commit.membars                          16                       # Number of memory barriers committed (Count)
system.cpu.commit.branches                     311038                       # Number of branches committed (Count)
system.cpu.commit.vectorInstructions                0                       # Number of committed Vector instructions. (Count)
system.cpu.commit.floating                        887                       # Number of committed floating point instructions. (Count)
system.cpu.commit.integer                    58296898                       # Number of committed integer instructions. (Count)
system.cpu.commit.functionCalls                   330                       # Number of function calls committed. (Count)
system.cpu.commit.committedInstType_0::No_OpClass           45      0.00%      0.00% # Class of committed instruction (Count)
system.cpu.commit.committedInstType_0::IntAlu     38358424     65.80%     65.80% # Class of committed instruction (Count)
system.cpu.commit.committedInstType_0::IntMult           26      0.00%     65.80% # Class of committed instruction (Count)
system.cpu.commit.committedInstType_0::IntDiv           70      0.00%     65.80% # Class of committed instruction (Count)
system.cpu.commit.committedInstType_0::FloatAdd           21      0.00%     65.80% # Class of committed instruction (Count)
system.cpu.commit.committedInstType_0::FloatCmp            0      0.00%     65.80% # Class of committed instruction (Count)
system.cpu.commit.committedInstType_0::FloatCvt            0      0.00%     65.80% # Class of committed instruction (Count)
system.cpu.commit.committedInstType_0::FloatMult            0      0.00%     65.80% # Class of committed instruction (Count)
system.cpu.commit.committedInstType_0::FloatMultAcc            0      0.00%     65.80% # Class of committed instruction (Count)
system.cpu.commit.committedInstType_0::FloatDiv            0      0.00%     65.80% # Class of committed instruction (Count)
system.cpu.commit.committedInstType_0::FloatMisc            0      0.00%     65.80% # Class of committed instruction (Count)
system.cpu.commit.committedInstType_0::FloatSqrt            0      0.00%     65.80% # Class of committed instruction (Count)
system.cpu.commit.committedInstType_0::SimdAdd            0      0.00%     65.80% # Class of committed instruction (Count)
system.cpu.commit.committedInstType_0::SimdAddAcc            0      0.00%     65.80% # Class of committed instruction (Count)
system.cpu.commit.committedInstType_0::SimdAlu          150      0.00%     65.80% # Class of committed instruction (Count)
system.cpu.commit.committedInstType_0::SimdCmp            0      0.00%     65.80% # Class of committed instruction (Count)
system.cpu.commit.committedInstType_0::SimdCvt          158      0.00%     65.80% # Class of committed instruction (Count)
system.cpu.commit.committedInstType_0::SimdMisc          220      0.00%     65.80% # Class of committed instruction (Count)
system.cpu.commit.committedInstType_0::SimdMult            0      0.00%     65.80% # Class of committed instruction (Count)
system.cpu.commit.committedInstType_0::SimdMultAcc            0      0.00%     65.80% # Class of committed instruction (Count)
system.cpu.commit.committedInstType_0::SimdShift            0      0.00%     65.80% # Class of committed instruction (Count)
system.cpu.commit.committedInstType_0::SimdShiftAcc            0      0.00%     65.80% # Class of committed instruction (Count)
system.cpu.commit.committedInstType_0::SimdDiv            0      0.00%     65.80% # Class of committed instruction (Count)
system.cpu.commit.committedInstType_0::SimdSqrt            0      0.00%     65.80% # Class of committed instruction (Count)
system.cpu.commit.committedInstType_0::SimdFloatAdd            0      0.00%     65.80% # Class of committed instruction (Count)
system.cpu.commit.committedInstType_0::SimdFloatAlu            0      0.00%     65.80% # Class of committed instruction (Count)
system.cpu.commit.committedInstType_0::SimdFloatCmp            0      0.00%     65.80% # Class of committed instruction (Count)
system.cpu.commit.committedInstType_0::SimdFloatCvt            0      0.00%     65.80% # Class of committed instruction (Count)
system.cpu.commit.committedInstType_0::SimdFloatDiv            0      0.00%     65.80% # Class of committed instruction (Count)
system.cpu.commit.committedInstType_0::SimdFloatMisc            0      0.00%     65.80% # Class of committed instruction (Count)
system.cpu.commit.committedInstType_0::SimdFloatMult            0      0.00%     65.80% # Class of committed instruction (Count)
system.cpu.commit.committedInstType_0::SimdFloatMultAcc            0      0.00%     65.80% # Class of committed instruction (Count)
system.cpu.commit.committedInstType_0::SimdFloatSqrt            0      0.00%     65.80% # Class of committed instruction (Count)
system.cpu.commit.committedInstType_0::SimdReduceAdd            0      0.00%     65.80% # Class of committed instruction (Count)
system.cpu.commit.committedInstType_0::SimdReduceAlu            0      0.00%     65.80% # Class of committed instruction (Count)
system.cpu.commit.committedInstType_0::SimdReduceCmp            0      0.00%     65.80% # Class of committed instruction (Count)
system.cpu.commit.committedInstType_0::SimdFloatReduceAdd            0      0.00%     65.80% # Class of committed instruction (Count)
system.cpu.commit.committedInstType_0::SimdFloatReduceCmp            0      0.00%     65.80% # Class of committed instruction (Count)
system.cpu.commit.committedInstType_0::SimdAes            0      0.00%     65.80% # Class of committed instruction (Count)
system.cpu.commit.committedInstType_0::SimdAesMix            0      0.00%     65.80% # Class of committed instruction (Count)
system.cpu.commit.committedInstType_0::SimdSha1Hash            0      0.00%     65.80% # Class of committed instruction (Count)
system.cpu.commit.committedInstType_0::SimdSha1Hash2            0      0.00%     65.80% # Class of committed instruction (Count)
system.cpu.commit.committedInstType_0::SimdSha256Hash            0      0.00%     65.80% # Class of committed instruction (Count)
system.cpu.commit.committedInstType_0::SimdSha256Hash2            0      0.00%     65.80% # Class of committed instruction (Count)
system.cpu.commit.committedInstType_0::SimdShaSigma2            0      0.00%     65.80% # Class of committed instruction (Count)
system.cpu.commit.committedInstType_0::SimdShaSigma3            0      0.00%     65.80% # Class of committed instruction (Count)
system.cpu.commit.committedInstType_0::SimdPredAlu            0      0.00%     65.80% # Class of committed instruction (Count)
system.cpu.commit.committedInstType_0::MemRead     13189522     22.62%     88.42% # Class of committed instruction (Count)
system.cpu.commit.committedInstType_0::MemWrite      6748679     11.58%    100.00% # Class of committed instruction (Count)
system.cpu.commit.committedInstType_0::FloatMemRead           99      0.00%    100.00% # Class of committed instruction (Count)
system.cpu.commit.committedInstType_0::FloatMemWrite          171      0.00%    100.00% # Class of committed instruction (Count)
system.cpu.commit.committedInstType_0::IprAccess            0      0.00%    100.00% # Class of committed instruction (Count)
system.cpu.commit.committedInstType_0::InstPrefetch            0      0.00%    100.00% # Class of committed instruction (Count)
system.cpu.commit.committedInstType_0::total     58297585                       # Class of committed instruction (Count)
system.cpu.commit.commitEligibleSamples          1586                       # number cycles where commit BW limit reached (Cycle)
system.cpu.dcache.demandHits::cpu.data       13430953                       # number of demand (read+write) hits (Count)
system.cpu.dcache.demandHits::total          13430953                       # number of demand (read+write) hits (Count)
system.cpu.dcache.overallHits::cpu.data      13430953                       # number of overall hits (Count)
system.cpu.dcache.overallHits::total         13430953                       # number of overall hits (Count)
system.cpu.dcache.demandMisses::cpu.data       766978                       # number of demand (read+write) misses (Count)
system.cpu.dcache.demandMisses::total          766978                       # number of demand (read+write) misses (Count)
system.cpu.dcache.overallMisses::cpu.data       766978                       # number of overall misses (Count)
system.cpu.dcache.overallMisses::total         766978                       # number of overall misses (Count)
system.cpu.dcache.demandMissLatency::cpu.data  80684481998                       # number of demand (read+write) miss ticks (Tick)
system.cpu.dcache.demandMissLatency::total  80684481998                       # number of demand (read+write) miss ticks (Tick)
system.cpu.dcache.overallMissLatency::cpu.data  80684481998                       # number of overall miss ticks (Tick)
system.cpu.dcache.overallMissLatency::total  80684481998                       # number of overall miss ticks (Tick)
system.cpu.dcache.demandAccesses::cpu.data     14197931                       # number of demand (read+write) accesses (Count)
system.cpu.dcache.demandAccesses::total      14197931                       # number of demand (read+write) accesses (Count)
system.cpu.dcache.overallAccesses::cpu.data     14197931                       # number of overall (read+write) accesses (Count)
system.cpu.dcache.overallAccesses::total     14197931                       # number of overall (read+write) accesses (Count)
system.cpu.dcache.demandMissRate::cpu.data     0.054020                       # miss rate for demand accesses (Ratio)
system.cpu.dcache.demandMissRate::total      0.054020                       # miss rate for demand accesses (Ratio)
system.cpu.dcache.overallMissRate::cpu.data     0.054020                       # miss rate for overall accesses (Ratio)
system.cpu.dcache.overallMissRate::total     0.054020                       # miss rate for overall accesses (Ratio)
system.cpu.dcache.demandAvgMissLatency::cpu.data 105197.909194                       # average overall miss latency in ticks ((Tick/Count))
system.cpu.dcache.demandAvgMissLatency::total 105197.909194                       # average overall miss latency in ticks ((Tick/Count))
system.cpu.dcache.overallAvgMissLatency::cpu.data 105197.909194                       # average overall miss latency ((Tick/Count))
system.cpu.dcache.overallAvgMissLatency::total 105197.909194                       # average overall miss latency ((Tick/Count))
system.cpu.dcache.blockedCycles::no_mshrs           45                       # number of cycles access was blocked (Cycle)
system.cpu.dcache.blockedCycles::no_targets            0                       # number of cycles access was blocked (Cycle)
system.cpu.dcache.blockedCauses::no_mshrs            7                       # number of times access was blocked (Count)
system.cpu.dcache.blockedCauses::no_targets            0                       # number of times access was blocked (Count)
system.cpu.dcache.avgBlocked::no_mshrs       6.428571                       # average number of cycles each access was blocked ((Cycle/Count))
system.cpu.dcache.avgBlocked::no_targets          nan                       # average number of cycles each access was blocked ((Cycle/Count))
system.cpu.dcache.writebacks::writebacks       766268                       # number of writebacks (Count)
system.cpu.dcache.writebacks::total            766268                       # number of writebacks (Count)
system.cpu.dcache.demandMshrHits::cpu.data          121                       # number of demand (read+write) MSHR hits (Count)
system.cpu.dcache.demandMshrHits::total           121                       # number of demand (read+write) MSHR hits (Count)
system.cpu.dcache.overallMshrHits::cpu.data          121                       # number of overall MSHR hits (Count)
system.cpu.dcache.overallMshrHits::total          121                       # number of overall MSHR hits (Count)
system.cpu.dcache.demandMshrMisses::cpu.data       766857                       # number of demand (read+write) MSHR misses (Count)
system.cpu.dcache.demandMshrMisses::total       766857                       # number of demand (read+write) MSHR misses (Count)
system.cpu.dcache.overallMshrMisses::cpu.data       766857                       # number of overall MSHR misses (Count)
system.cpu.dcache.overallMshrMisses::total       766857                       # number of overall MSHR misses (Count)
system.cpu.dcache.demandMshrMissLatency::cpu.data  79140621999                       # number of demand (read+write) MSHR miss ticks (Tick)
system.cpu.dcache.demandMshrMissLatency::total  79140621999                       # number of demand (read+write) MSHR miss ticks (Tick)
system.cpu.dcache.overallMshrMissLatency::cpu.data  79140621999                       # number of overall MSHR miss ticks (Tick)
system.cpu.dcache.overallMshrMissLatency::total  79140621999                       # number of overall MSHR miss ticks (Tick)
system.cpu.dcache.demandMshrMissRate::cpu.data     0.054012                       # mshr miss ratio for demand accesses (Ratio)
system.cpu.dcache.demandMshrMissRate::total     0.054012                       # mshr miss ratio for demand accesses (Ratio)
system.cpu.dcache.overallMshrMissRate::cpu.data     0.054012                       # mshr miss ratio for overall accesses (Ratio)
system.cpu.dcache.overallMshrMissRate::total     0.054012                       # mshr miss ratio for overall accesses (Ratio)
system.cpu.dcache.demandAvgMshrMissLatency::cpu.data 103201.277421                       # average overall mshr miss latency ((Tick/Count))
system.cpu.dcache.demandAvgMshrMissLatency::total 103201.277421                       # average overall mshr miss latency ((Tick/Count))
system.cpu.dcache.overallAvgMshrMissLatency::cpu.data 103201.277421                       # average overall mshr miss latency ((Tick/Count))
system.cpu.dcache.overallAvgMshrMissLatency::total 103201.277421                       # average overall mshr miss latency ((Tick/Count))
system.cpu.dcache.replacements                 766344                       # number of replacements (Count)
system.cpu.dcache.LockedRMWReadReq.hits::cpu.data            8                       # number of LockedRMWReadReq hits (Count)
system.cpu.dcache.LockedRMWReadReq.hits::total            8                       # number of LockedRMWReadReq hits (Count)
system.cpu.dcache.LockedRMWReadReq.accesses::cpu.data            8                       # number of LockedRMWReadReq accesses(hits+misses) (Count)
system.cpu.dcache.LockedRMWReadReq.accesses::total            8                       # number of LockedRMWReadReq accesses(hits+misses) (Count)
system.cpu.dcache.LockedRMWReadReq.mshrMissLatency::cpu.data        92000                       # number of LockedRMWReadReq MSHR miss ticks (Tick)
system.cpu.dcache.LockedRMWReadReq.mshrMissLatency::total        92000                       # number of LockedRMWReadReq MSHR miss ticks (Tick)
system.cpu.dcache.LockedRMWReadReq.avgMshrMissLatency::cpu.data          inf                       # average LockedRMWReadReq mshr miss latency ((Tick/Count))
system.cpu.dcache.LockedRMWReadReq.avgMshrMissLatency::total          inf                       # average LockedRMWReadReq mshr miss latency ((Tick/Count))
system.cpu.dcache.LockedRMWWriteReq.hits::cpu.data            8                       # number of LockedRMWWriteReq hits (Count)
system.cpu.dcache.LockedRMWWriteReq.hits::total            8                       # number of LockedRMWWriteReq hits (Count)
system.cpu.dcache.LockedRMWWriteReq.accesses::cpu.data            8                       # number of LockedRMWWriteReq accesses(hits+misses) (Count)
system.cpu.dcache.LockedRMWWriteReq.accesses::total            8                       # number of LockedRMWWriteReq accesses(hits+misses) (Count)
system.cpu.dcache.ReadReq.hits::cpu.data      7448839                       # number of ReadReq hits (Count)
system.cpu.dcache.ReadReq.hits::total         7448839                       # number of ReadReq hits (Count)
system.cpu.dcache.ReadReq.misses::cpu.data          267                       # number of ReadReq misses (Count)
system.cpu.dcache.ReadReq.misses::total           267                       # number of ReadReq misses (Count)
system.cpu.dcache.ReadReq.missLatency::cpu.data     22653000                       # number of ReadReq miss ticks (Tick)
system.cpu.dcache.ReadReq.missLatency::total     22653000                       # number of ReadReq miss ticks (Tick)
system.cpu.dcache.ReadReq.accesses::cpu.data      7449106                       # number of ReadReq accesses(hits+misses) (Count)
system.cpu.dcache.ReadReq.accesses::total      7449106                       # number of ReadReq accesses(hits+misses) (Count)
system.cpu.dcache.ReadReq.missRate::cpu.data     0.000036                       # miss rate for ReadReq accesses (Ratio)
system.cpu.dcache.ReadReq.missRate::total     0.000036                       # miss rate for ReadReq accesses (Ratio)
system.cpu.dcache.ReadReq.avgMissLatency::cpu.data 84842.696629                       # average ReadReq miss latency ((Tick/Count))
system.cpu.dcache.ReadReq.avgMissLatency::total 84842.696629                       # average ReadReq miss latency ((Tick/Count))
system.cpu.dcache.ReadReq.mshrHits::cpu.data          118                       # number of ReadReq MSHR hits (Count)
system.cpu.dcache.ReadReq.mshrHits::total          118                       # number of ReadReq MSHR hits (Count)
system.cpu.dcache.ReadReq.mshrMisses::cpu.data          149                       # number of ReadReq MSHR misses (Count)
system.cpu.dcache.ReadReq.mshrMisses::total          149                       # number of ReadReq MSHR misses (Count)
system.cpu.dcache.ReadReq.mshrMissLatency::cpu.data     12490000                       # number of ReadReq MSHR miss ticks (Tick)
system.cpu.dcache.ReadReq.mshrMissLatency::total     12490000                       # number of ReadReq MSHR miss ticks (Tick)
system.cpu.dcache.ReadReq.mshrMissRate::cpu.data     0.000020                       # mshr miss rate for ReadReq accesses (Ratio)
system.cpu.dcache.ReadReq.mshrMissRate::total     0.000020                       # mshr miss rate for ReadReq accesses (Ratio)
system.cpu.dcache.ReadReq.avgMshrMissLatency::cpu.data 83825.503356                       # average ReadReq mshr miss latency ((Tick/Count))
system.cpu.dcache.ReadReq.avgMshrMissLatency::total 83825.503356                       # average ReadReq mshr miss latency ((Tick/Count))
system.cpu.dcache.WriteReq.hits::cpu.data      5982114                       # number of WriteReq hits (Count)
system.cpu.dcache.WriteReq.hits::total        5982114                       # number of WriteReq hits (Count)
system.cpu.dcache.WriteReq.misses::cpu.data       766711                       # number of WriteReq misses (Count)
system.cpu.dcache.WriteReq.misses::total       766711                       # number of WriteReq misses (Count)
system.cpu.dcache.WriteReq.missLatency::cpu.data  80661828998                       # number of WriteReq miss ticks (Tick)
system.cpu.dcache.WriteReq.missLatency::total  80661828998                       # number of WriteReq miss ticks (Tick)
system.cpu.dcache.WriteReq.accesses::cpu.data      6748825                       # number of WriteReq accesses(hits+misses) (Count)
system.cpu.dcache.WriteReq.accesses::total      6748825                       # number of WriteReq accesses(hits+misses) (Count)
system.cpu.dcache.WriteReq.missRate::cpu.data     0.113607                       # miss rate for WriteReq accesses (Ratio)
system.cpu.dcache.WriteReq.missRate::total     0.113607                       # miss rate for WriteReq accesses (Ratio)
system.cpu.dcache.WriteReq.avgMissLatency::cpu.data 105204.997708                       # average WriteReq miss latency ((Tick/Count))
system.cpu.dcache.WriteReq.avgMissLatency::total 105204.997708                       # average WriteReq miss latency ((Tick/Count))
system.cpu.dcache.WriteReq.mshrHits::cpu.data            3                       # number of WriteReq MSHR hits (Count)
system.cpu.dcache.WriteReq.mshrHits::total            3                       # number of WriteReq MSHR hits (Count)
system.cpu.dcache.WriteReq.mshrMisses::cpu.data       766708                       # number of WriteReq MSHR misses (Count)
system.cpu.dcache.WriteReq.mshrMisses::total       766708                       # number of WriteReq MSHR misses (Count)
system.cpu.dcache.WriteReq.mshrMissLatency::cpu.data  79128131999                       # number of WriteReq MSHR miss ticks (Tick)
system.cpu.dcache.WriteReq.mshrMissLatency::total  79128131999                       # number of WriteReq MSHR miss ticks (Tick)
system.cpu.dcache.WriteReq.mshrMissRate::cpu.data     0.113606                       # mshr miss rate for WriteReq accesses (Ratio)
system.cpu.dcache.WriteReq.mshrMissRate::total     0.113606                       # mshr miss rate for WriteReq accesses (Ratio)
system.cpu.dcache.WriteReq.avgMshrMissLatency::cpu.data 103205.042857                       # average WriteReq mshr miss latency ((Tick/Count))
system.cpu.dcache.WriteReq.avgMshrMissLatency::total 103205.042857                       # average WriteReq mshr miss latency ((Tick/Count))
system.cpu.dcache.power_state.pwrStateResidencyTicks::UNDEFINED  95162008000                       # Cumulative time (in ticks) in various power states (Tick)
system.cpu.dcache.tags.tagsInUse           511.677358                       # Average ticks per tags in use ((Tick/Count))
system.cpu.dcache.tags.totalRefs             14197825                       # Total number of references to valid blocks. (Count)
system.cpu.dcache.tags.sampledRefs             766856                       # Sample count of references to valid blocks. (Count)
system.cpu.dcache.tags.avgRefs              18.514330                       # Average number of references to valid blocks. ((Count/Count))
system.cpu.dcache.tags.warmupTick              317000                       # The tick when the warmup percentage was hit. (Tick)
system.cpu.dcache.tags.occupancies::cpu.data   511.677358                       # Average occupied blocks per tick, per requestor ((Count/Tick))
system.cpu.dcache.tags.avgOccs::cpu.data     0.999370                       # Average percentage of cache occupancy ((Ratio/Tick))
system.cpu.dcache.tags.avgOccs::total        0.999370                       # Average percentage of cache occupancy ((Ratio/Tick))
system.cpu.dcache.tags.occupanciesTaskId::1024          512                       # Occupied blocks per task id (Count)
system.cpu.dcache.tags.ageTaskId_1024::0           81                       # Occupied blocks per task id, per block age (Count)
system.cpu.dcache.tags.ageTaskId_1024::1          428                       # Occupied blocks per task id, per block age (Count)
system.cpu.dcache.tags.ageTaskId_1024::4            3                       # Occupied blocks per task id, per block age (Count)
system.cpu.dcache.tags.ratioOccsTaskId::1024            1                       # Ratio of occupied blocks and all blocks, per task id (Ratio)
system.cpu.dcache.tags.tagAccesses           57558644                       # Number of tag accesses (Count)
system.cpu.dcache.tags.dataAccesses          57558644                       # Number of data accesses (Count)
system.cpu.dcache.tags.power_state.pwrStateResidencyTicks::UNDEFINED  95162008000                       # Cumulative time (in ticks) in various power states (Tick)
system.cpu.decode.idleCycles                  3495495                       # Number of cycles decode is idle (Cycle)
system.cpu.decode.blockedCycles              82096779                       # Number of cycles decode is blocked (Cycle)
system.cpu.decode.runCycles                   5315061                       # Number of cycles decode is running (Cycle)
system.cpu.decode.unblockCycles               3898872                       # Number of cycles decode is unblocking (Cycle)
system.cpu.decode.squashCycles                 329750                       # Number of cycles decode is squashing (Cycle)
system.cpu.decode.branchResolved               669963                       # Number of times decode resolved a branch (Count)
system.cpu.decode.branchMispred                   402                       # Number of times decode detected a branch misprediction (Count)
system.cpu.decode.decodedInsts               70036136                       # Number of instructions handled by decode (Count)
system.cpu.decode.squashedInsts                  1892                       # Number of squashed instructions handled by decode (Count)
system.cpu.fetch.icacheStallCycles            6741221                       # Number of cycles fetch is stalled on an Icache miss (Cycle)
system.cpu.fetch.insts                       62586831                       # Number of instructions fetch has processed (Count)
system.cpu.fetch.branches                     2881352                       # Number of branches that fetch encountered (Count)
system.cpu.fetch.predictedBranches            1916559                       # Number of branches that fetch has predicted taken (Count)
system.cpu.fetch.cycles                      88064409                       # Number of cycles fetch has run and was not squashing or blocked (Cycle)
system.cpu.fetch.squashCycles                  660260                       # Number of cycles fetch has spent squashing (Cycle)
system.cpu.fetch.miscStallCycles                   25                       # Number of cycles fetch has spent waiting on interrupts, or bad addresses, or out of MSHRs (Cycle)
system.cpu.fetch.pendingTrapStallCycles           129                       # Number of stall cycles due to pending traps (Cycle)
system.cpu.fetch.icacheWaitRetryStallCycles           43                       # Number of stall cycles due to full MSHR (Cycle)
system.cpu.fetch.cacheLines                   6702932                       # Number of cache lines fetched (Count)
system.cpu.fetch.icacheSquashes                301319                       # Number of outstanding Icache misses that were squashed (Count)
system.cpu.fetch.nisnDist::samples           95135957                       # Number of instructions fetched each cycle (Total) (Count)
system.cpu.fetch.nisnDist::mean              0.863314                       # Number of instructions fetched each cycle (Total) (Count)
system.cpu.fetch.nisnDist::stdev             2.336303                       # Number of instructions fetched each cycle (Total) (Count)
system.cpu.fetch.nisnDist::underflows               0      0.00%      0.00% # Number of instructions fetched each cycle (Total) (Count)
system.cpu.fetch.nisnDist::0                 81283029     85.44%     85.44% # Number of instructions fetched each cycle (Total) (Count)
system.cpu.fetch.nisnDist::1                  2182545      2.29%     87.73% # Number of instructions fetched each cycle (Total) (Count)
system.cpu.fetch.nisnDist::2                   789769      0.83%     88.56% # Number of instructions fetched each cycle (Total) (Count)
system.cpu.fetch.nisnDist::3                   342359      0.36%     88.92% # Number of instructions fetched each cycle (Total) (Count)
system.cpu.fetch.nisnDist::4                   634125      0.67%     89.59% # Number of instructions fetched each cycle (Total) (Count)
system.cpu.fetch.nisnDist::5                   321658      0.34%     89.93% # Number of instructions fetched each cycle (Total) (Count)
system.cpu.fetch.nisnDist::6                  1111224      1.17%     91.10% # Number of instructions fetched each cycle (Total) (Count)
system.cpu.fetch.nisnDist::7                  1239103      1.30%     92.40% # Number of instructions fetched each cycle (Total) (Count)
system.cpu.fetch.nisnDist::8                  7232145      7.60%    100.00% # Number of instructions fetched each cycle (Total) (Count)
system.cpu.fetch.nisnDist::overflows                0      0.00%    100.00% # Number of instructions fetched each cycle (Total) (Count)
system.cpu.fetch.nisnDist::min_value                0                       # Number of instructions fetched each cycle (Total) (Count)
system.cpu.fetch.nisnDist::max_value                8                       # Number of instructions fetched each cycle (Total) (Count)
system.cpu.fetch.nisnDist::total             95135957                       # Number of instructions fetched each cycle (Total) (Count)
system.cpu.fetch.branchRate                  0.030278                       # Number of branch fetches per cycle (Ratio)
system.cpu.fetch.rate                        0.657687                       # Number of inst fetches per cycle ((Count/Cycle))
system.cpu.icache.demandHits::cpu.inst        6702060                       # number of demand (read+write) hits (Count)
system.cpu.icache.demandHits::total           6702060                       # number of demand (read+write) hits (Count)
system.cpu.icache.overallHits::cpu.inst       6702060                       # number of overall hits (Count)
system.cpu.icache.overallHits::total          6702060                       # number of overall hits (Count)
system.cpu.icache.demandMisses::cpu.inst          872                       # number of demand (read+write) misses (Count)
system.cpu.icache.demandMisses::total             872                       # number of demand (read+write) misses (Count)
system.cpu.icache.overallMisses::cpu.inst          872                       # number of overall misses (Count)
system.cpu.icache.overallMisses::total            872                       # number of overall misses (Count)
system.cpu.icache.demandMissLatency::cpu.inst     80197999                       # number of demand (read+write) miss ticks (Tick)
system.cpu.icache.demandMissLatency::total     80197999                       # number of demand (read+write) miss ticks (Tick)
system.cpu.icache.overallMissLatency::cpu.inst     80197999                       # number of overall miss ticks (Tick)
system.cpu.icache.overallMissLatency::total     80197999                       # number of overall miss ticks (Tick)
system.cpu.icache.demandAccesses::cpu.inst      6702932                       # number of demand (read+write) accesses (Count)
system.cpu.icache.demandAccesses::total       6702932                       # number of demand (read+write) accesses (Count)
system.cpu.icache.overallAccesses::cpu.inst      6702932                       # number of overall (read+write) accesses (Count)
system.cpu.icache.overallAccesses::total      6702932                       # number of overall (read+write) accesses (Count)
system.cpu.icache.demandMissRate::cpu.inst     0.000130                       # miss rate for demand accesses (Ratio)
system.cpu.icache.demandMissRate::total      0.000130                       # miss rate for demand accesses (Ratio)
system.cpu.icache.overallMissRate::cpu.inst     0.000130                       # miss rate for overall accesses (Ratio)
system.cpu.icache.overallMissRate::total     0.000130                       # miss rate for overall accesses (Ratio)
system.cpu.icache.demandAvgMissLatency::cpu.inst 91970.182339                       # average overall miss latency in ticks ((Tick/Count))
system.cpu.icache.demandAvgMissLatency::total 91970.182339                       # average overall miss latency in ticks ((Tick/Count))
system.cpu.icache.overallAvgMissLatency::cpu.inst 91970.182339                       # average overall miss latency ((Tick/Count))
system.cpu.icache.overallAvgMissLatency::total 91970.182339                       # average overall miss latency ((Tick/Count))
system.cpu.icache.blockedCycles::no_mshrs           67                       # number of cycles access was blocked (Cycle)
system.cpu.icache.blockedCycles::no_targets            0                       # number of cycles access was blocked (Cycle)
system.cpu.icache.blockedCauses::no_mshrs            3                       # number of times access was blocked (Count)
system.cpu.icache.blockedCauses::no_targets            0                       # number of times access was blocked (Count)
system.cpu.icache.avgBlocked::no_mshrs      22.333333                       # average number of cycles each access was blocked ((Cycle/Count))
system.cpu.icache.avgBlocked::no_targets          nan                       # average number of cycles each access was blocked ((Cycle/Count))
system.cpu.icache.demandMshrHits::cpu.inst          228                       # number of demand (read+write) MSHR hits (Count)
system.cpu.icache.demandMshrHits::total           228                       # number of demand (read+write) MSHR hits (Count)
system.cpu.icache.overallMshrHits::cpu.inst          228                       # number of overall MSHR hits (Count)
system.cpu.icache.overallMshrHits::total          228                       # number of overall MSHR hits (Count)
system.cpu.icache.demandMshrMisses::cpu.inst          644                       # number of demand (read+write) MSHR misses (Count)
system.cpu.icache.demandMshrMisses::total          644                       # number of demand (read+write) MSHR misses (Count)
system.cpu.icache.overallMshrMisses::cpu.inst          644                       # number of overall MSHR misses (Count)
system.cpu.icache.overallMshrMisses::total          644                       # number of overall MSHR misses (Count)
system.cpu.icache.demandMshrMissLatency::cpu.inst     63017999                       # number of demand (read+write) MSHR miss ticks (Tick)
system.cpu.icache.demandMshrMissLatency::total     63017999                       # number of demand (read+write) MSHR miss ticks (Tick)
system.cpu.icache.overallMshrMissLatency::cpu.inst     63017999                       # number of overall MSHR miss ticks (Tick)
system.cpu.icache.overallMshrMissLatency::total     63017999                       # number of overall MSHR miss ticks (Tick)
system.cpu.icache.demandMshrMissRate::cpu.inst     0.000096                       # mshr miss ratio for demand accesses (Ratio)
system.cpu.icache.demandMshrMissRate::total     0.000096                       # mshr miss ratio for demand accesses (Ratio)
system.cpu.icache.overallMshrMissRate::cpu.inst     0.000096                       # mshr miss ratio for overall accesses (Ratio)
system.cpu.icache.overallMshrMissRate::total     0.000096                       # mshr miss ratio for overall accesses (Ratio)
system.cpu.icache.demandAvgMshrMissLatency::cpu.inst 97854.035714                       # average overall mshr miss latency ((Tick/Count))
system.cpu.icache.demandAvgMshrMissLatency::total 97854.035714                       # average overall mshr miss latency ((Tick/Count))
system.cpu.icache.overallAvgMshrMissLatency::cpu.inst 97854.035714                       # average overall mshr miss latency ((Tick/Count))
system.cpu.icache.overallAvgMshrMissLatency::total 97854.035714                       # average overall mshr miss latency ((Tick/Count))
system.cpu.icache.replacements                    218                       # number of replacements (Count)
system.cpu.icache.ReadReq.hits::cpu.inst      6702060                       # number of ReadReq hits (Count)
system.cpu.icache.ReadReq.hits::total         6702060                       # number of ReadReq hits (Count)
system.cpu.icache.ReadReq.misses::cpu.inst          872                       # number of ReadReq misses (Count)
system.cpu.icache.ReadReq.misses::total           872                       # number of ReadReq misses (Count)
system.cpu.icache.ReadReq.missLatency::cpu.inst     80197999                       # number of ReadReq miss ticks (Tick)
system.cpu.icache.ReadReq.missLatency::total     80197999                       # number of ReadReq miss ticks (Tick)
system.cpu.icache.ReadReq.accesses::cpu.inst      6702932                       # number of ReadReq accesses(hits+misses) (Count)
system.cpu.icache.ReadReq.accesses::total      6702932                       # number of ReadReq accesses(hits+misses) (Count)
system.cpu.icache.ReadReq.missRate::cpu.inst     0.000130                       # miss rate for ReadReq accesses (Ratio)
system.cpu.icache.ReadReq.missRate::total     0.000130                       # miss rate for ReadReq accesses (Ratio)
system.cpu.icache.ReadReq.avgMissLatency::cpu.inst 91970.182339                       # average ReadReq miss latency ((Tick/Count))
system.cpu.icache.ReadReq.avgMissLatency::total 91970.182339                       # average ReadReq miss latency ((Tick/Count))
system.cpu.icache.ReadReq.mshrHits::cpu.inst          228                       # number of ReadReq MSHR hits (Count)
system.cpu.icache.ReadReq.mshrHits::total          228                       # number of ReadReq MSHR hits (Count)
system.cpu.icache.ReadReq.mshrMisses::cpu.inst          644                       # number of ReadReq MSHR misses (Count)
system.cpu.icache.ReadReq.mshrMisses::total          644                       # number of ReadReq MSHR misses (Count)
system.cpu.icache.ReadReq.mshrMissLatency::cpu.inst     63017999                       # number of ReadReq MSHR miss ticks (Tick)
system.cpu.icache.ReadReq.mshrMissLatency::total     63017999                       # number of ReadReq MSHR miss ticks (Tick)
system.cpu.icache.ReadReq.mshrMissRate::cpu.inst     0.000096                       # mshr miss rate for ReadReq accesses (Ratio)
system.cpu.icache.ReadReq.mshrMissRate::total     0.000096                       # mshr miss rate for ReadReq accesses (Ratio)
system.cpu.icache.ReadReq.avgMshrMissLatency::cpu.inst 97854.035714                       # average ReadReq mshr miss latency ((Tick/Count))
system.cpu.icache.ReadReq.avgMshrMissLatency::total 97854.035714                       # average ReadReq mshr miss latency ((Tick/Count))
system.cpu.icache.power_state.pwrStateResidencyTicks::UNDEFINED  95162008000                       # Cumulative time (in ticks) in various power states (Tick)
system.cpu.icache.tags.tagsInUse           425.886161                       # Average ticks per tags in use ((Tick/Count))
system.cpu.icache.tags.totalRefs              6702704                       # Total number of references to valid blocks. (Count)
system.cpu.icache.tags.sampledRefs                644                       # Sample count of references to valid blocks. (Count)
system.cpu.icache.tags.avgRefs           10407.925466                       # Average number of references to valid blocks. ((Count/Count))
system.cpu.icache.tags.warmupTick              107000                       # The tick when the warmup percentage was hit. (Tick)
system.cpu.icache.tags.occupancies::cpu.inst   425.886161                       # Average occupied blocks per tick, per requestor ((Count/Tick))
system.cpu.icache.tags.avgOccs::cpu.inst     0.831809                       # Average percentage of cache occupancy ((Ratio/Tick))
system.cpu.icache.tags.avgOccs::total        0.831809                       # Average percentage of cache occupancy ((Ratio/Tick))
system.cpu.icache.tags.occupanciesTaskId::1024          426                       # Occupied blocks per task id (Count)
system.cpu.icache.tags.ageTaskId_1024::4          426                       # Occupied blocks per task id, per block age (Count)
system.cpu.icache.tags.ratioOccsTaskId::1024     0.832031                       # Ratio of occupied blocks and all blocks, per task id (Ratio)
system.cpu.icache.tags.tagAccesses           13406508                       # Number of tag accesses (Count)
system.cpu.icache.tags.dataAccesses          13406508                       # Number of data accesses (Count)
system.cpu.icache.tags.power_state.pwrStateResidencyTicks::UNDEFINED  95162008000                       # Cumulative time (in ticks) in various power states (Tick)
system.cpu.iew.idleCycles                           0                       # Number of cycles IEW is idle (Cycle)
system.cpu.iew.squashCycles                    329750                       # Number of cycles IEW is squashing (Cycle)
system.cpu.iew.blockCycles                     950830                       # Number of cycles IEW is blocking (Cycle)
system.cpu.iew.unblockCycles                 13095640                       # Number of cycles IEW is unblocking (Cycle)
system.cpu.iew.dispatchedInsts               66411560                       # Number of instructions dispatched to IQ (Count)
system.cpu.iew.dispSquashedInsts                  387                       # Number of squashed instructions skipped by dispatch (Count)
system.cpu.iew.dispLoadInsts                 14652824                       # Number of dispatched load instructions (Count)
system.cpu.iew.dispStoreInsts                 7834864                       # Number of dispatched store instructions (Count)
system.cpu.iew.dispNonSpecInsts                    75                       # Number of dispatched non-speculative instructions (Count)
system.cpu.iew.iqFullEvents                         7                       # Number of times the IQ has become full, causing a stall (Count)
system.cpu.iew.lsqFullEvents                 12950683                       # Number of times the LSQ has become full, causing a stall (Count)
system.cpu.iew.memOrderViolationEvents            179                       # Number of memory order violations (Count)
system.cpu.iew.predictedTakenIncorrect              5                       # Number of branches that were predicted taken incorrectly (Count)
system.cpu.iew.predictedNotTakenIncorrect       317977                       # Number of branches that were predicted not taken incorrectly (Count)
system.cpu.iew.branchMispredicts               317982                       # Number of branch mispredicts detected at execute (Count)
system.cpu.iew.instsToCommit                 66138361                       # Cumulative count of insts sent to commit (Count)
system.cpu.iew.writebackCount                65950807                       # Cumulative count of insts written-back (Count)
system.cpu.iew.producerInst                  53170652                       # Number of instructions producing a value (Count)
system.cpu.iew.consumerInst                  60671504                       # Number of instructions consuming a value (Count)
system.cpu.iew.wbRate                        0.693037                       # Insts written-back per cycle ((Count/Cycle))
system.cpu.iew.wbFanout                      0.876369                       # Average fanout of values written-back ((Count/Count))
system.cpu.interrupts.clk_domain.clock          16000                       # Clock period in ticks (Tick)
system.cpu.lsq0.forwLoads                     7187541                       # Number of loads that had data forwarded from stores (Count)
system.cpu.lsq0.squashedLoads                 1463192                       # Number of loads squashed (Count)
system.cpu.lsq0.ignoredResponses                   21                       # Number of memory responses ignored because the instruction is squashed (Count)
system.cpu.lsq0.memOrderViolation                 179                       # Number of memory ordering violations (Count)
system.cpu.lsq0.squashedStores                1086008                       # Number of stores squashed (Count)
system.cpu.lsq0.rescheduledLoads                    1                       # Number of loads that were rescheduled (Count)
system.cpu.lsq0.blockedByCache                      7                       # Number of times an access to memory failed due to the cache being blocked (Count)
system.cpu.lsq0.loadToUse::samples           13189621                       # Distribution of cycle latency between the first time a load is issued and its completion (Unspecified)
system.cpu.lsq0.loadToUse::mean              2.481827                       # Distribution of cycle latency between the first time a load is issued and its completion (Unspecified)
system.cpu.lsq0.loadToUse::stdev             0.600188                       # Distribution of cycle latency between the first time a load is issued and its completion (Unspecified)
system.cpu.lsq0.loadToUse::0-9               13189503    100.00%    100.00% # Distribution of cycle latency between the first time a load is issued and its completion (Unspecified)
system.cpu.lsq0.loadToUse::10-19                    3      0.00%    100.00% # Distribution of cycle latency between the first time a load is issued and its completion (Unspecified)
system.cpu.lsq0.loadToUse::20-29                    4      0.00%    100.00% # Distribution of cycle latency between the first time a load is issued and its completion (Unspecified)
system.cpu.lsq0.loadToUse::30-39                    2      0.00%    100.00% # Distribution of cycle latency between the first time a load is issued and its completion (Unspecified)
system.cpu.lsq0.loadToUse::40-49                    1      0.00%    100.00% # Distribution of cycle latency between the first time a load is issued and its completion (Unspecified)
system.cpu.lsq0.loadToUse::50-59                    1      0.00%    100.00% # Distribution of cycle latency between the first time a load is issued and its completion (Unspecified)
system.cpu.lsq0.loadToUse::70-79                    3      0.00%    100.00% # Distribution of cycle latency between the first time a load is issued and its completion (Unspecified)
system.cpu.lsq0.loadToUse::80-89                    4      0.00%    100.00% # Distribution of cycle latency between the first time a load is issued and its completion (Unspecified)
system.cpu.lsq0.loadToUse::90-99                   28      0.00%    100.00% # Distribution of cycle latency between the first time a load is issued and its completion (Unspecified)
system.cpu.lsq0.loadToUse::100-109                  6      0.00%    100.00% # Distribution of cycle latency between the first time a load is issued and its completion (Unspecified)
system.cpu.lsq0.loadToUse::110-119                 24      0.00%    100.00% # Distribution of cycle latency between the first time a load is issued and its completion (Unspecified)
system.cpu.lsq0.loadToUse::120-129                 40      0.00%    100.00% # Distribution of cycle latency between the first time a load is issued and its completion (Unspecified)
system.cpu.lsq0.loadToUse::130-139                  1      0.00%    100.00% # Distribution of cycle latency between the first time a load is issued and its completion (Unspecified)
system.cpu.lsq0.loadToUse::160-169                  1      0.00%    100.00% # Distribution of cycle latency between the first time a load is issued and its completion (Unspecified)
system.cpu.lsq0.loadToUse::min_value                2                       # Distribution of cycle latency between the first time a load is issued and its completion (Unspecified)
system.cpu.lsq0.loadToUse::max_value              167                       # Distribution of cycle latency between the first time a load is issued and its completion (Unspecified)
system.cpu.lsq0.loadToUse::total             13189621                       # Distribution of cycle latency between the first time a load is issued and its completion (Unspecified)
system.cpu.mmu.dtb.rdAccesses                14636702                       # TLB accesses on read requests (Count)
system.cpu.mmu.dtb.wrAccesses                 7655770                       # TLB accesses on write requests (Count)
system.cpu.mmu.dtb.rdMisses                        67                       # TLB misses on read requests (Count)
system.cpu.mmu.dtb.wrMisses                    196469                       # TLB misses on write requests (Count)
system.cpu.mmu.dtb.walker.power_state.pwrStateResidencyTicks::UNDEFINED  95162008000                       # Cumulative time (in ticks) in various power states (Tick)
system.cpu.mmu.itb.rdAccesses                       0                       # TLB accesses on read requests (Count)
system.cpu.mmu.itb.wrAccesses                 6702957                       # TLB accesses on write requests (Count)
system.cpu.mmu.itb.rdMisses                         0                       # TLB misses on read requests (Count)
system.cpu.mmu.itb.wrMisses                        74                       # TLB misses on write requests (Count)
system.cpu.mmu.itb.walker.power_state.pwrStateResidencyTicks::UNDEFINED  95162008000                       # Cumulative time (in ticks) in various power states (Tick)
system.cpu.power_state.pwrStateResidencyTicks::ON  95162008000                       # Cumulative time (in ticks) in various power states (Tick)
system.cpu.rename.squashCycles                 329750                       # Number of cycles rename is squashing (Cycle)
[...]
system.mem_ctrl.dram.bytesWritten::total     46974080                       # Number of bytes written to this memory (Byte)
system.mem_ctrl.dram.numReads::cpu.inst           608                       # Number of read requests responded to by this memory (Count)
system.mem_ctrl.dram.numReads::cpu.data        766815                       # Number of read requests responded to by this memory (Count)
system.mem_ctrl.dram.numReads::total           767423                       # Number of read requests responded to by this memory (Count)
system.mem_ctrl.dram.numWrites::writebacks       733970                       # Number of write requests responded to by this memory (Count)
system.mem_ctrl.dram.numWrites::total          733970                       # Number of write requests responded to by this memory (Count)
system.mem_ctrl.dram.bwRead::cpu.inst          408903                       # Total read bandwidth from this memory ((Byte/Second))
system.mem_ctrl.dram.bwRead::cpu.data       515711690                       # Total read bandwidth from this memory ((Byte/Second))
system.mem_ctrl.dram.bwRead::total          516120593                       # Total read bandwidth from this memory ((Byte/Second))
system.mem_ctrl.dram.bwInstRead::cpu.inst       408903                       # Instruction read bandwidth from this memory ((Byte/Second))
system.mem_ctrl.dram.bwInstRead::total         408903                       # Instruction read bandwidth from this memory ((Byte/Second))
system.mem_ctrl.dram.bwWrite::writebacks    493622203                       # Write bandwidth from this memory ((Byte/Second))
system.mem_ctrl.dram.bwWrite::total         493622203                       # Write bandwidth from this memory ((Byte/Second))
system.mem_ctrl.dram.bwTotal::writebacks    493622203                       # Total bandwidth to/from this memory ((Byte/Second))
system.mem_ctrl.dram.bwTotal::cpu.inst         408903                       # Total bandwidth to/from this memory ((Byte/Second))
system.mem_ctrl.dram.bwTotal::cpu.data      515711690                       # Total bandwidth to/from this memory ((Byte/Second))
system.mem_ctrl.dram.bwTotal::total        1009742796                       # Total bandwidth to/from this memory ((Byte/Second))
system.mem_ctrl.dram.readBursts                767423                       # Number of DRAM read bursts (Count)
system.mem_ctrl.dram.writeBursts               733942                       # Number of DRAM write bursts (Count)
system.mem_ctrl.dram.perBankRdBursts::0         48103                       # Per bank write bursts (Count)
system.mem_ctrl.dram.perBankRdBursts::1         48027                       # Per bank write bursts (Count)
system.mem_ctrl.dram.perBankRdBursts::2         48067                       # Per bank write bursts (Count)
system.mem_ctrl.dram.perBankRdBursts::3         47898                       # Per bank write bursts (Count)
system.mem_ctrl.dram.perBankRdBursts::4         47893                       # Per bank write bursts (Count)
system.mem_ctrl.dram.perBankRdBursts::5         47874                       # Per bank write bursts (Count)
system.mem_ctrl.dram.perBankRdBursts::6         47909                       # Per bank write bursts (Count)
system.mem_ctrl.dram.perBankRdBursts::7         47933                       # Per bank write bursts (Count)
system.mem_ctrl.dram.perBankRdBursts::8         47911                       # Per bank write bursts (Count)
system.mem_ctrl.dram.perBankRdBursts::9         47953                       # Per bank write bursts (Count)
system.mem_ctrl.dram.perBankRdBursts::10        47939                       # Per bank write bursts (Count)
system.mem_ctrl.dram.perBankRdBursts::11        47929                       # Per bank write bursts (Count)
system.mem_ctrl.dram.perBankRdBursts::12        48021                       # Per bank write bursts (Count)
system.mem_ctrl.dram.perBankRdBursts::13        47988                       # Per bank write bursts (Count)
system.mem_ctrl.dram.perBankRdBursts::14        47951                       # Per bank write bursts (Count)
system.mem_ctrl.dram.perBankRdBursts::15        48027                       # Per bank write bursts (Count)
system.mem_ctrl.dram.perBankWrBursts::0         45952                       # Per bank write bursts (Count)
system.mem_ctrl.dram.perBankWrBursts::1         45952                       # Per bank write bursts (Count)
system.mem_ctrl.dram.perBankWrBursts::2         45924                       # Per bank write bursts (Count)
system.mem_ctrl.dram.perBankWrBursts::3         45824                       # Per bank write bursts (Count)
system.mem_ctrl.dram.perBankWrBursts::4         45824                       # Per bank write bursts (Count)
system.mem_ctrl.dram.perBankWrBursts::5         45824                       # Per bank write bursts (Count)
system.mem_ctrl.dram.perBankWrBursts::6         45824                       # Per bank write bursts (Count)
system.mem_ctrl.dram.perBankWrBursts::7         45865                       # Per bank write bursts (Count)
system.mem_ctrl.dram.perBankWrBursts::8         45849                       # Per bank write bursts (Count)
system.mem_ctrl.dram.perBankWrBursts::9         45837                       # Per bank write bursts (Count)
system.mem_ctrl.dram.perBankWrBursts::10        45852                       # Per bank write bursts (Count)
system.mem_ctrl.dram.perBankWrBursts::11        45834                       # Per bank write bursts (Count)
system.mem_ctrl.dram.perBankWrBursts::12        45851                       # Per bank write bursts (Count)
system.mem_ctrl.dram.perBankWrBursts::13        45889                       # Per bank write bursts (Count)
system.mem_ctrl.dram.perBankWrBursts::14        45889                       # Per bank write bursts (Count)
system.mem_ctrl.dram.perBankWrBursts::15        45952                       # Per bank write bursts (Count)
system.mem_ctrl.dram.totQLat               7824024250                       # Total ticks spent queuing (Tick)
system.mem_ctrl.dram.totBusLat             3837115000                       # Total ticks spent in databus transfers (Tick)
system.mem_ctrl.dram.totMemAccLat         22213205500                       # Total ticks spent from burst creation until serviced by the DRAM (Tick)
system.mem_ctrl.dram.avgQLat                 10195.19                       # Average queueing delay per DRAM burst ((Tick/Count))
system.mem_ctrl.dram.avgBusLat                5000.00                       # Average bus latency per DRAM burst ((Tick/Count))
system.mem_ctrl.dram.avgMemAccLat            28945.19                       # Average memory access latency per DRAM burst ((Tick/Count))
system.mem_ctrl.dram.readRowHits               703556                       # Number of row buffer hits during reads (Count)
system.mem_ctrl.dram.writeRowHits              681193                       # Number of row buffer hits during writes (Count)
system.mem_ctrl.dram.readRowHitRate             91.68                       # Row buffer hit rate for reads (Ratio)
system.mem_ctrl.dram.writeRowHitRate            92.81                       # Row buffer hit rate for writes (Ratio)
system.mem_ctrl.dram.bytesPerActivate::samples       116614                       # Bytes accessed per row activation (Byte)
system.mem_ctrl.dram.bytesPerActivate::mean   823.971324                       # Bytes accessed per row activation (Byte)
system.mem_ctrl.dram.bytesPerActivate::gmean   727.496516                       # Bytes accessed per row activation (Byte)
system.mem_ctrl.dram.bytesPerActivate::stdev   297.817162                       # Bytes accessed per row activation (Byte)
system.mem_ctrl.dram.bytesPerActivate::0-127         2105      1.81%      1.81% # Bytes accessed per row activation (Byte)
system.mem_ctrl.dram.bytesPerActivate::128-255         4729      4.06%      5.86% # Bytes accessed per row activation (Byte)
system.mem_ctrl.dram.bytesPerActivate::256-383         7620      6.53%     12.39% # Bytes accessed per row activation (Byte)
system.mem_ctrl.dram.bytesPerActivate::384-511         6887      5.91%     18.30% # Bytes accessed per row activation (Byte)
system.mem_ctrl.dram.bytesPerActivate::512-639         6808      5.84%     24.14% # Bytes accessed per row activation (Byte)
system.mem_ctrl.dram.bytesPerActivate::640-767         7420      6.36%     30.50% # Bytes accessed per row activation (Byte)
system.mem_ctrl.dram.bytesPerActivate::768-895         5022      4.31%     34.81% # Bytes accessed per row activation (Byte)
system.mem_ctrl.dram.bytesPerActivate::896-1023         3626      3.11%     37.92% # Bytes accessed per row activation (Byte)
system.mem_ctrl.dram.bytesPerActivate::1024-1151        72397     62.08%    100.00% # Bytes accessed per row activation (Byte)
system.mem_ctrl.dram.bytesPerActivate::total       116614                       # Bytes accessed per row activation (Byte)
system.mem_ctrl.dram.bytesRead               49115072                       # Total bytes read (Byte)
system.mem_ctrl.dram.bytesWritten            46972288                       # Total bytes written (Byte)
system.mem_ctrl.dram.avgRdBW               516.120593                       # Average DRAM read bandwidth in MiBytes/s ((Byte/Second))
system.mem_ctrl.dram.avgWrBW               493.603372                       # Average DRAM write bandwidth in MiBytes/s ((Byte/Second))
system.mem_ctrl.dram.peakBW                  12800.00                       # Theoretical peak bandwidth in MiByte/s ((Byte/Second))
system.mem_ctrl.dram.busUtil                     7.89                       # Data bus utilization in percentage (Ratio)
system.mem_ctrl.dram.busUtilRead                 4.03                       # Data bus utilization in percentage for reads (Ratio)
system.mem_ctrl.dram.busUtilWrite                3.86                       # Data bus utilization in percentage for writes (Ratio)
system.mem_ctrl.dram.pageHitRate                92.23                       # Row buffer hit rate, read and write combined (Ratio)
system.mem_ctrl.dram.power_state.pwrStateResidencyTicks::UNDEFINED  95162008000                       # Cumulative time (in ticks) in various power states (Tick)
system.mem_ctrl.dram.rank0.actEnergy        415298100                       # Energy for activate commands per rank (pJ) (Joule)
system.mem_ctrl.dram.rank0.preEnergy        220728585                       # Energy for precharge commands per rank (pJ) (Joule)
system.mem_ctrl.dram.rank0.readEnergy      2739646560                       # Energy for read commands per rank (pJ) (Joule)
system.mem_ctrl.dram.rank0.writeEnergy     1915682580                       # Energy for write commands per rank (pJ) (Joule)
system.mem_ctrl.dram.rank0.refreshEnergy 7511515440.000001                       # Energy for refresh commands per rank (pJ) (Joule)
system.mem_ctrl.dram.rank0.actBackEnergy  22617395940                       # Energy for active background per rank (pJ) (Joule)
system.mem_ctrl.dram.rank0.preBackEnergy  17495983200                       # Energy for precharge background per rank (pJ) (Joule)
system.mem_ctrl.dram.rank0.actPowerDownEnergy            0                       # Energy for active power-down per rank (pJ) (Joule)
system.mem_ctrl.dram.rank0.prePowerDownEnergy            0                       # Energy for precharge power-down per rank (pJ) (Joule)
system.mem_ctrl.dram.rank0.selfRefreshEnergy            0                       # Energy for self refresh per rank (pJ) (Joule)
system.mem_ctrl.dram.rank0.totalEnergy    52916250405                       # Total energy per rank (pJ) (Joule)
system.mem_ctrl.dram.rank0.averagePower    556.064878                       # Core power per rank (mW) (Watt)
system.mem_ctrl.dram.rank0.totalIdleTime            0                       # Total Idle time Per DRAM Rank (Tick)
system.mem_ctrl.dram.rank0.pwrStateTime::IDLE  44878244000                       # Time in different power states (Tick)
system.mem_ctrl.dram.rank0.pwrStateTime::REF   3177460000                       # Time in different power states (Tick)
system.mem_ctrl.dram.rank0.pwrStateTime::SREF            0                       # Time in different power states (Tick)
system.mem_ctrl.dram.rank0.pwrStateTime::PRE_PDN            0                       # Time in different power states (Tick)
system.mem_ctrl.dram.rank0.pwrStateTime::ACT  47106304000                       # Time in different power states (Tick)
system.mem_ctrl.dram.rank0.pwrStateTime::ACT_PDN            0                       # Time in different power states (Tick)
system.mem_ctrl.dram.rank1.actEnergy        417340140                       # Energy for activate commands per rank (pJ) (Joule)
system.mem_ctrl.dram.rank1.preEnergy        221821545                       # Energy for precharge commands per rank (pJ) (Joule)
system.mem_ctrl.dram.rank1.readEnergy      2739753660                       # Energy for read commands per rank (pJ) (Joule)
system.mem_ctrl.dram.rank1.writeEnergy     1915494660                       # Energy for write commands per rank (pJ) (Joule)
system.mem_ctrl.dram.rank1.refreshEnergy 7511515440.000001                       # Energy for refresh commands per rank (pJ) (Joule)
system.mem_ctrl.dram.rank1.actBackEnergy  22607522970                       # Energy for active background per rank (pJ) (Joule)
system.mem_ctrl.dram.rank1.preBackEnergy  17504297280                       # Energy for precharge background per rank (pJ) (Joule)
system.mem_ctrl.dram.rank1.actPowerDownEnergy            0                       # Energy for active power-down per rank (pJ) (Joule)
system.mem_ctrl.dram.rank1.prePowerDownEnergy            0                       # Energy for precharge power-down per rank (pJ) (Joule)
system.mem_ctrl.dram.rank1.selfRefreshEnergy            0                       # Energy for self refresh per rank (pJ) (Joule)
system.mem_ctrl.dram.rank1.totalEnergy    52917745695                       # Total energy per rank (pJ) (Joule)
system.mem_ctrl.dram.rank1.averagePower    556.080591                       # Core power per rank (mW) (Watt)
system.mem_ctrl.dram.rank1.totalIdleTime            0                       # Total Idle time Per DRAM Rank (Tick)
system.mem_ctrl.dram.rank1.pwrStateTime::IDLE  44899722250                       # Time in different power states (Tick)
system.mem_ctrl.dram.rank1.pwrStateTime::REF   3177460000                       # Time in different power states (Tick)
system.mem_ctrl.dram.rank1.pwrStateTime::SREF            0                       # Time in different power states (Tick)
system.mem_ctrl.dram.rank1.pwrStateTime::PRE_PDN            0                       # Time in different power states (Tick)
system.mem_ctrl.dram.rank1.pwrStateTime::ACT  47084825750                       # Time in different power states (Tick)
system.mem_ctrl.dram.rank1.pwrStateTime::ACT_PDN            0                       # Time in different power states (Tick)
system.mem_ctrl.power_state.pwrStateResidencyTicks::UNDEFINED  95162008000                       # Cumulative time (in ticks) in various power states (Tick)
system.membus.transDist::ReadResp                 715                       # Transaction distribution (Count)
system.membus.transDist::WritebackDirty        733970                       # Transaction distribution (Count)
system.membus.transDist::CleanEvict               255                       # Transaction distribution (Count)
system.membus.transDist::ReadExReq             766708                       # Transaction distribution (Count)
system.membus.transDist::ReadExResp            766707                       # Transaction distribution (Count)
system.membus.transDist::ReadSharedReq            715                       # Transaction distribution (Count)
system.membus.pktCount_system.l2cache.mem_side_port::system.mem_ctrl.port      2269070                       # Packet count per connected requestor and responder (Count)
system.membus.pktCount_system.l2cache.mem_side_port::total      2269070                       # Packet count per connected requestor and responder (Count)
system.membus.pktCount::total                 2269070                       # Packet count per connected requestor and responder (Count)
system.membus.pktSize_system.l2cache.mem_side_port::system.mem_ctrl.port     96089088                       # Cumulative packet size per connected requestor and responder (Byte)
system.membus.pktSize_system.l2cache.mem_side_port::total     96089088                       # Cumulative packet size per connected requestor and responder (Byte)
system.membus.pktSize::total                 96089088                       # Cumulative packet size per connected requestor and responder (Byte)
system.membus.snoops                                0                       # Total snoops (Count)
system.membus.snoopTraffic                          0                       # Total snoop traffic (Byte)
system.membus.snoopFanout::samples             767423                       # Request fanout histogram (Count)
system.membus.snoopFanout::mean                     0                       # Request fanout histogram (Count)
system.membus.snoopFanout::stdev                    0                       # Request fanout histogram (Count)
system.membus.snoopFanout::underflows               0      0.00%      0.00% # Request fanout histogram (Count)
system.membus.snoopFanout::0                   767423    100.00%    100.00% # Request fanout histogram (Count)
system.membus.snoopFanout::1                        0      0.00%    100.00% # Request fanout histogram (Count)
system.membus.snoopFanout::overflows                0      0.00%    100.00% # Request fanout histogram (Count)
system.membus.snoopFanout::min_value                0                       # Request fanout histogram (Count)
system.membus.snoopFanout::max_value                0                       # Request fanout histogram (Count)
system.membus.snoopFanout::total               767423                       # Request fanout histogram (Count)
system.membus.power_state.pwrStateResidencyTicks::UNDEFINED  95162008000                       # Cumulative time (in ticks) in various power states (Tick)
system.membus.reqLayer2.occupancy          4437528000                       # Layer occupancy (ticks) (Tick)
system.membus.reqLayer2.utilization               0.0                       # Layer utilization (Ratio)
system.membus.respLayer0.occupancy         4036381750                       # Layer occupancy (ticks) (Tick)
system.membus.respLayer0.utilization              0.0                       # Layer utilization (Ratio)
system.membus.snoop_filter.totRequests        1501648                       # Total number of requests made to the snoop filter. (Count)
system.membus.snoop_filter.hitSingleRequests       734225                       # Number of requests hitting in the snoop filter with a single holder of the requested data. (Count)
system.membus.snoop_filter.hitMultiRequests            0                       # Number of requests hitting in the snoop filter with multiple (>1) holders of the requested data. (Count)
system.membus.snoop_filter.totSnoops                0                       # Total number of snoops made to the snoop filter. (Count)
system.membus.snoop_filter.hitSingleSnoops            0                       # Number of snoops hitting in the snoop filter with a single holder of the requested data. (Count)
system.membus.snoop_filter.hitMultiSnoops            0                       # Number of snoops hitting in the snoop filter with multiple (>1) holders of the requested data. (Count)
system.workload.inst.arm                            0                       # number of arm instructions executed (Count)
system.workload.inst.quiesce                        0                       # number of quiesce instructions executed (Count)

---------- End Simulation Statistics   ----------
