
---------- Begin Simulation Statistics ----------
simSeconds                                   0.004880                       # Number of seconds simulated (Second)
simTicks                                   4879963000                       # Number of ticks simulated (Tick)
finalTick                                  4879963000                       # Number of ticks from beginning of simulation (restored from checkpoints and never reset) (Tick)
simFreq                                  1000000000000                       # The number of ticks per simulated second ((Tick/Second))
hostSeconds                                     30.18                       # Real time elapsed on the host (Second)
hostTickRate                                161707561                       # The number of ticks simulated per host second (ticks/s) ((Tick/Second))
hostMemory                                    8521420                       # Number of bytes of host memory used (Byte)
simInsts                                      5000003                       # Number of instructions simulated (Count)
simOps                                        9077811                       # Number of ops (including micro ops) simulated (Count)
hostInstRate                                   165685                       # Simulator instruction rate (inst/s) ((Count/Second))
hostOpRate                                     300811                       # Simulator op (including micro ops) rate (op/s) ((Count/Second))
system.clk_domain.clock                          1000                       # Clock period in ticks (Tick)
system.clk_domain.voltage_domain.voltage            1                       # Voltage in Volts (Volt)
system.cpu.numCycles                          4879976                       # Number of cpu cycles simulated (Cycle)
system.cpu.numWorkItemsStarted                      0                       # Number of work items this cpu started (Count)
system.cpu.numWorkItemsCompleted                    0                       # Number of work items this cpu completed (Count)
system.cpu.instsAdded                         9338630                       # Number of instructions added to the IQ (excludes non-spec) (Count)
system.cpu.nonSpecInstsAdded                      222                       # Number of non-speculative instructions added to the IQ (Count)
system.cpu.instsIssued                        9149402                       # Number of instructions issued (Count)
system.cpu.squashedInstsIssued                  81456                       # Number of squashed instructions issued (Count)
system.cpu.squashedInstsExamined               260982                       # Number of squashed instructions iterated over during squash; mainly for profiling (Count)
system.cpu.squashedOperandsExamined            721137                       # Number of squashed operands that are examined and possibly removed from graph (Count)
system.cpu.squashedNonSpecRemoved                 186                       # Number of squashed non-spec instructions that were removed (Count)
system.cpu.numIssuedDist::samples             4865249                       # Number of insts issued each cycle (Count)
system.cpu.numIssuedDist::mean               1.880562                       # Number of insts issued each cycle (Count)
system.cpu.numIssuedDist::stdev              1.050819                       # Number of insts issued each cycle (Count)
system.cpu.numIssuedDist::underflows                0      0.00%      0.00% # Number of insts issued each cycle (Count)
system.cpu.numIssuedDist::0                    774540     15.92%     15.92% # Number of insts issued each cycle (Count)
system.cpu.numIssuedDist::1                    527023     10.83%     26.75% # Number of insts issued each cycle (Count)
system.cpu.numIssuedDist::2                   2220816     45.65%     72.40% # Number of insts issued each cycle (Count)
system.cpu.numIssuedDist::3                   1198885     24.64%     97.04% # Number of insts issued each cycle (Count)
system.cpu.numIssuedDist::4                    136306      2.80%     99.84% # Number of insts issued each cycle (Count)
system.cpu.numIssuedDist::5                      7206      0.15%     99.99% # Number of insts issued each cycle (Count)
system.cpu.numIssuedDist::6                       473      0.01%    100.00% # Number of insts issued each cycle (Count)
system.cpu.numIssuedDist::7                         0      0.00%    100.00% # Number of insts issued each cycle (Count)
system.cpu.numIssuedDist::8                         0      0.00%    100.00% # Number of insts issued each cycle (Count)
system.cpu.numIssuedDist::overflows                 0      0.00%    100.00% # Number of insts issued each cycle (Count)
system.cpu.numIssuedDist::min_value                 0                       # Number of insts issued each cycle (Count)
system.cpu.numIssuedDist::max_value                 6                       # Number of insts issued each cycle (Count)
system.cpu.numIssuedDist::total               4865249                       # Number of insts issued each cycle (Count)
system.cpu.statFuBusy::No_OpClass                   0      0.00%      0.00% # attempts to use FU when none available (Count)
system.cpu.statFuBusy::IntAlu                 3053441     86.12%     86.12% # attempts to use FU when none available (Count)
system.cpu.statFuBusy::IntMult                      0      0.00%     86.12% # attempts to use FU when none available (Count)
system.cpu.statFuBusy::IntDiv                       0      0.00%     86.12% # attempts to use FU when none available (Count)
system.cpu.statFuBusy::FloatAdd                     0      0.00%     86.12% # attempts to use FU when none available (Count)
system.cpu.statFuBusy::FloatCmp                     0      0.00%     86.12% # attempts to use FU when none available (Count)
system.cpu.statFuBusy::FloatCvt                     0      0.00%     86.12% # attempts to use FU when none available (Count)
system.cpu.statFuBusy::FloatMult                    0      0.00%     86.12% # attempts to use FU when none available (Count)
system.cpu.statFuBusy::FloatMultAcc                 0      0.00%     86.12% # attempts to use FU when none available (Count)
system.cpu.statFuBusy::FloatDiv                     0      0.00%     86.12% # attempts to use FU when none available (Count)
system.cpu.statFuBusy::FloatMisc                    0      0.00%     86.12% # attempts to use FU when none available (Count)
system.cpu.statFuBusy::FloatSqrt                    0      0.00%     86.12% # attempts to use FU when none available (Count)
system.cpu.statFuBusy::SimdAdd                      0      0.00%     86.12% # attempts to use FU when none available (Count)
system.cpu.statFuBusy::SimdAddAcc                   0      0.00%     86.12% # attempts to use FU when none available (Count)
system.cpu.statFuBusy::SimdAlu                     55      0.00%     86.12% # attempts to use FU when none available (Count)
system.cpu.statFuBusy::SimdCmp                      0      0.00%     86.12% # attempts to use FU when none available (Count)
system.cpu.statFuBusy::SimdCvt                      6      0.00%     86.12% # attempts to use FU when none available (Count)
system.cpu.statFuBusy::SimdMisc                     2      0.00%     86.12% # attempts to use FU when none available (Count)
system.cpu.statFuBusy::SimdMult                     0      0.00%     86.12% # attempts to use FU when none available (Count)
system.cpu.statFuBusy::SimdMultAcc                  0      0.00%     86.12% # attempts to use FU when none available (Count)
system.cpu.statFuBusy::SimdShift                    0      0.00%     86.12% # attempts to use FU when none available (Count)
system.cpu.statFuBusy::SimdShiftAcc                 0      0.00%     86.12% # attempts to use FU when none available (Count)
system.cpu.statFuBusy::SimdDiv                      0      0.00%     86.12% # attempts to use FU when none available (Count)
system.cpu.statFuBusy::SimdSqrt                     0      0.00%     86.12% # attempts to use FU when none available (Count)
system.cpu.statFuBusy::SimdFloatAdd                 0      0.00%     86.12% # attempts to use FU when none available (Count)
system.cpu.statFuBusy::SimdFloatAlu                 0      0.00%     86.12% # attempts to use FU when none available (Count)
system.cpu.statFuBusy::SimdFloatCmp                 0      0.00%     86.12% # attempts to use FU when none available (Count)
system.cpu.statFuBusy::SimdFloatCvt                 0      0.00%     86.12% # attempts to use FU when none available (Count)
system.cpu.statFuBusy::SimdFloatDiv                 0      0.00%     86.12% # attempts to use FU when none available (Count)
system.cpu.statFuBusy::SimdFloatMisc                0      0.00%     86.12% # attempts to use FU when none available (Count)
system.cpu.statFuBusy::SimdFloatMult                0      0.00%     86.12% # attempts to use FU when none available (Count)
system.cpu.statFuBusy::SimdFloatMultAcc             0      0.00%     86.12% # attempts to use FU when none available (Count)
system.cpu.statFuBusy::SimdFloatSqrt                0      0.00%     86.12% # attempts to use FU when none available (Count)
system.cpu.statFuBusy::SimdReduceAdd                0      0.00%     86.12% # attempts to use FU when none available (Count)
system.cpu.statFuBusy::SimdReduceAlu                0      0.00%     86.12% # attempts to use FU when none available (Count)
system.cpu.statFuBusy::SimdReduceCmp                0      0.00%     86.12% # attempts to use FU when none available (Count)
system.cpu.statFuBusy::SimdFloatReduceAdd            0      0.00%     86.12% # attempts to use FU when none available (Count)
system.cpu.statFuBusy::SimdFloatReduceCmp            0      0.00%     86.12% # attempts to use FU when none available (Count)
system.cpu.statFuBusy::SimdAes                      0      0.00%     86.12% # attempts to use FU when none available (Count)
system.cpu.statFuBusy::SimdAesMix                   0      0.00%     86.12% # attempts to use FU when none available (Count)
system.cpu.statFuBusy::SimdSha1Hash                 0      0.00%     86.12% # attempts to use FU when none available (Count)
system.cpu.statFuBusy::SimdSha1Hash2                0      0.00%     86.12% # attempts to use FU when none available (Count)
system.cpu.statFuBusy::SimdSha256Hash               0      0.00%     86.12% # attempts to use FU when none available (Count)
system.cpu.statFuBusy::SimdSha256Hash2              0      0.00%     86.12% # attempts to use FU when none available (Count)
system.cpu.statFuBusy::SimdShaSigma2                0      0.00%     86.12% # attempts to use FU when none available (Count)
system.cpu.statFuBusy::SimdShaSigma3                0      0.00%     86.12% # attempts to use FU when none available (Count)
system.cpu.statFuBusy::SimdPredAlu                  0      0.00%     86.12% # attempts to use FU when none available (Count)
system.cpu.statFuBusy::MemRead                 383977     10.83%     96.95% # attempts to use FU when none available (Count)
system.cpu.statFuBusy::MemWrite                101751      2.87%     99.82% # attempts to use FU when none available (Count)
system.cpu.statFuBusy::FloatMemRead              6204      0.17%    100.00% # attempts to use FU when none available (Count)
system.cpu.statFuBusy::FloatMemWrite               53      0.00%    100.00% # attempts to use FU when none available (Count)
system.cpu.statFuBusy::IprAccess                    0      0.00%    100.00% # attempts to use FU when none available (Count)
system.cpu.statFuBusy::InstPrefetch                 0      0.00%    100.00% # attempts to use FU when none available (Count)
system.cpu.statIssuedInstType_0::No_OpClass        21320      0.23%      0.23% # Number of instructions issued per FU type, per thread (Count)
system.cpu.statIssuedInstType_0::IntAlu       7102609     77.63%     77.86% # Number of instructions issued per FU type, per thread (Count)
system.cpu.statIssuedInstType_0::IntMult        17684      0.19%     78.06% # Number of instructions issued per FU type, per thread (Count)
system.cpu.statIssuedInstType_0::IntDiv            31      0.00%     78.06% # Number of instructions issued per FU type, per thread (Count)
system.cpu.statIssuedInstType_0::FloatAdd         5927      0.06%     78.12% # Number of instructions issued per FU type, per thread (Count)
system.cpu.statIssuedInstType_0::FloatCmp            0      0.00%     78.12% # Number of instructions issued per FU type, per thread (Count)
system.cpu.statIssuedInstType_0::FloatCvt            0      0.00%     78.12% # Number of instructions issued per FU type, per thread (Count)
system.cpu.statIssuedInstType_0::FloatMult            0      0.00%     78.12% # Number of instructions issued per FU type, per thread (Count)
system.cpu.statIssuedInstType_0::FloatMultAcc            0      0.00%     78.12% # Number of instructions issued per FU type, per thread (Count)
system.cpu.statIssuedInstType_0::FloatDiv            0      0.00%     78.12% # Number of instructions issued per FU type, per thread (Count)
system.cpu.statIssuedInstType_0::FloatMisc            0      0.00%     78.12% # Number of instructions issued per FU type, per thread (Count)
system.cpu.statIssuedInstType_0::FloatSqrt            0      0.00%     78.12% # Number of instructions issued per FU type, per thread (Count)
system.cpu.statIssuedInstType_0::SimdAdd            0      0.00%     78.12% # Number of instructions issued per FU type, per thread (Count)
system.cpu.statIssuedInstType_0::SimdAddAcc            0      0.00%     78.12% # Number of instructions issued per FU type, per thread (Count)
system.cpu.statIssuedInstType_0::SimdAlu          158      0.00%     78.12% # Number of instructions issued per FU type, per thread (Count)
system.cpu.statIssuedInstType_0::SimdCmp            0      0.00%     78.12% # Number of instructions issued per FU type, per thread (Count)
system.cpu.statIssuedInstType_0::SimdCvt        12642      0.14%     78.26% # Number of instructions issued per FU type, per thread (Count)
system.cpu.statIssuedInstType_0::SimdMisc        54000      0.59%     78.85% # Number of instructions issued per FU type, per thread (Count)
system.cpu.statIssuedInstType_0::SimdMult            0      0.00%     78.85% # Number of instructions issued per FU type, per thread (Count)
system.cpu.statIssuedInstType_0::SimdMultAcc            0      0.00%     78.85% # Number of instructions issued per FU type, per thread (Count)
system.cpu.statIssuedInstType_0::SimdShift            0      0.00%     78.85% # Number of instructions issued per FU type, per thread (Count)
system.cpu.statIssuedInstType_0::SimdShiftAcc            0      0.00%     78.85% # Number of instructions issued per FU type, per thread (Count)
system.cpu.statIssuedInstType_0::SimdDiv            0      0.00%     78.85% # Number of instructions issued per FU type, per thread (Count)
system.cpu.statIssuedInstType_0::SimdSqrt            0      0.00%     78.85% # Number of instructions issued per FU type, per thread (Count)
system.cpu.statIssuedInstType_0::SimdFloatAdd            0      0.00%     78.85% # Number of instructions issued per FU type, per thread (Count)
system.cpu.statIssuedInstType_0::SimdFloatAlu            0      0.00%     78.85% # Number of instructions issued per FU type, per thread (Count)
system.cpu.statIssuedInstType_0::SimdFloatCmp            0      0.00%     78.85% # Number of instructions issued per FU type, per thread (Count)
system.cpu.statIssuedInstType_0::SimdFloatCvt            0      0.00%     78.85% # Number of instructions issued per FU type, per thread (Count)
system.cpu.statIssuedInstType_0::SimdFloatDiv            0      0.00%     78.85% # Number of instructions issued per FU type, per thread (Count)
system.cpu.statIssuedInstType_0::SimdFloatMisc            0      0.00%     78.85% # Number of instructions issued per FU type, per thread (Count)
system.cpu.statIssuedInstType_0::SimdFloatMult            0      0.00%     78.85% # Number of instructions issued per FU type, per thread (Count)
system.cpu.statIssuedInstType_0::SimdFloatMultAcc            0      0.00%     78.85% # Number of instructions issued per FU type, per thread (Count)
system.cpu.statIssuedInstType_0::SimdFloatSqrt            0      0.00%     78.85% # Number of instructions issued per FU type, per thread (Count)
system.cpu.statIssuedInstType_0::SimdReduceAdd            0      0.00%     78.85% # Number of instructions issued per FU type, per thread (Count)
system.cpu.statIssuedInstType_0::SimdReduceAlu            0      0.00%     78.85% # Number of instructions issued per FU type, per thread (Count)
system.cpu.statIssuedInstType_0::SimdReduceCmp            0      0.00%     78.85% # Number of instructions issued per FU type, per thread (Count)
system.cpu.statIssuedInstType_0::SimdFloatReduceAdd            0      0.00%     78.85% # Number of instructions issued per FU type, per thread (Count)
system.cpu.statIssuedInstType_0::SimdFloatReduceCmp            0      0.00%     78.85% # Number of instructions issued per FU type, per thread (Count)
system.cpu.statIssuedInstType_0::SimdAes            0      0.00%     78.85% # Number of instructions issued per FU type, per thread (Count)
system.cpu.statIssuedInstType_0::SimdAesMix            0      0.00%     78.85% # Number of instructions issued per FU type, per thread (Count)
system.cpu.statIssuedInstType_0::SimdSha1Hash            0      0.00%     78.85% # Number of instructions issued per FU type, per thread (Count)
system.cpu.statIssuedInstType_0::SimdSha1Hash2            0      0.00%     78.85% # Number of instructions issued per FU type, per thread (Count)
system.cpu.statIssuedInstType_0::SimdSha256Hash            0      0.00%     78.85% # Number of instructions issued per FU type, per thread (Count)
system.cpu.statIssuedInstType_0::SimdSha256Hash2            0      0.00%     78.85% # Number of instructions issued per FU type, per thread (Count)
system.cpu.statIssuedInstType_0::SimdShaSigma2            0      0.00%     78.85% # Number of instructions issued per FU type, per thread (Count)
system.cpu.statIssuedInstType_0::SimdShaSigma3            0      0.00%     78.85% # Number of instructions issued per FU type, per thread (Count)
system.cpu.statIssuedInstType_0::SimdPredAlu            0      0.00%     78.85% # Number of instructions issued per FU type, per thread (Count)
system.cpu.statIssuedInstType_0::MemRead      1178583     12.88%     91.73% # Number of instructions issued per FU type, per thread (Count)
system.cpu.statIssuedInstType_0::MemWrite       743490      8.13%     99.86% # Number of instructions issued per FU type, per thread (Count)
system.cpu.statIssuedInstType_0::FloatMemRead        12708      0.14%    100.00% # Number of instructions issued per FU type, per thread (Count)
system.cpu.statIssuedInstType_0::FloatMemWrite          250      0.00%    100.00% # Number of instructions issued per FU type, per thread (Count)
system.cpu.statIssuedInstType_0::IprAccess            0      0.00%    100.00% # Number of instructions issued per FU type, per thread (Count)
system.cpu.statIssuedInstType_0::InstPrefetch            0      0.00%    100.00% # Number of instructions issued per FU type, per thread (Count)
system.cpu.statIssuedInstType_0::total        9149402                       # Number of instructions issued per FU type, per thread (Count)
system.cpu.issueRate                         1.874887                       # Inst issue rate ((Count/Cycle))
system.cpu.fuBusy                             3545489                       # FU busy when requested (Count)
system.cpu.fuBusyRate                        0.387510                       # FU busy rate (busy events/executed inst) ((Count/Count))
system.cpu.intInstQueueReads                 26600746                       # Number of integer instruction queue reads (Count)
system.cpu.intInstQueueWrites                 9507062                       # Number of integer instruction queue writes (Count)
system.cpu.intInstQueueWakeupAccesses         9052099                       # Number of integer instruction queue wakeup accesses (Count)
system.cpu.fpInstQueueReads                    190248                       # Number of floating instruction queue reads (Count)
system.cpu.fpInstQueueWrites                    92963                       # Number of floating instruction queue writes (Count)
system.cpu.fpInstQueueWakeupAccesses            91509                       # Number of floating instruction queue wakeup accesses (Count)
system.cpu.vecInstQueueReads                        0                       # Number of vector instruction queue reads (Count)
system.cpu.vecInstQueueWrites                       0                       # Number of vector instruction queue writes (Count)
system.cpu.vecInstQueueWakeupAccesses               0                       # Number of vector instruction queue wakeup accesses (Count)
system.cpu.intAluAccesses                    12574931                       # Number of integer alu accesses (Count)
system.cpu.fpAluAccesses                        98640                       # Number of floating point alu accesses (Count)
system.cpu.vecAluAccesses                           0                       # Number of vector alu accesses (Count)
system.cpu.numInsts                           9147829                       # Number of executed instructions (Count)
system.cpu.numLoadInsts                       1190630                       # Number of load instructions executed (Count)
system.cpu.numSquashedInsts                      1569                       # Number of squashed instructions skipped in execute (Count)
system.cpu.numSwp                                   0                       # Number of swp insts executed (Count)
system.cpu.numNop                                   0                       # Number of nop insts executed (Count)
system.cpu.numRefs                            1933844                       # Number of memory reference insts executed (Count)
system.cpu.numBranches                        1040901                       # Number of branches executed (Count)
system.cpu.numStoreInsts                       743214                       # Number of stores executed (Count)
system.cpu.numRate                           1.874564                       # Inst execution rate ((Count/Cycle))
system.cpu.timesIdled                             323                       # Number of times that the entire CPU went into an idle state and unscheduled itself (Count)
system.cpu.idleCycles                           14727                       # Total number of cycles that the CPU has spent unscheduled due to idling (Cycle)
system.cpu.committedInsts                     5000003                       # Number of Instructions Simulated (Count)
system.cpu.committedOps                       9077811                       # Number of Ops (including micro ops) Simulated (Count)
system.cpu.cpi                               0.975995                       # CPI: Cycles Per Instruction ((Cycle/Count))
system.cpu.totalCpi                          0.975995                       # CPI: Total CPI of All Threads ((Cycle/Count))
system.cpu.ipc                               1.024596                       # IPC: Instructions Per Cycle ((Count/Cycle))
system.cpu.totalIpc                          1.024596                       # IPC: Total IPC of All Threads ((Count/Cycle))
system.cpu.intRegfileReads                   11763943                       # Number of integer regfile reads (Count)
system.cpu.intRegfileWrites                   6405976                       # Number of integer regfile writes (Count)
system.cpu.fpRegfileReads                      151556                       # Number of floating regfile reads (Count)
system.cpu.fpRegfileWrites                      78632                       # Number of floating regfile writes (Count)
system.cpu.ccRegfileReads                     5495962                       # number of cc regfile reads (Count)
system.cpu.ccRegfileWrites                    3088211                       # number of cc regfile writes (Count)
system.cpu.miscRegfileReads                   3952515                       # number of misc regfile reads (Count)
system.cpu.MemDepUnit__0.insertedLoads        1196020                       # Number of loads inserted to the mem dependence unit. (Count)
system.cpu.MemDepUnit__0.insertedStores        748596                       # Number of stores inserted to the mem dependence unit. (Count)
system.cpu.MemDepUnit__0.conflictingLoads       148819                       # Number of conflicting loads. (Count)
system.cpu.MemDepUnit__0.conflictingStores        49963                       # Number of conflicting stores. (Count)
system.cpu.MemDepUnit__1.insertedLoads              0                       # Number of loads inserted to the mem dependence unit. (Count)
system.cpu.MemDepUnit__1.insertedStores             0                       # Number of stores inserted to the mem dependence unit. (Count)
system.cpu.MemDepUnit__1.conflictingLoads            0                       # Number of conflicting loads. (Count)
system.cpu.MemDepUnit__1.conflictingStores            0                       # Number of conflicting stores. (Count)
system.cpu.MemDepUnit__2.insertedLoads              0                       # Number of loads inserted to the mem dependence unit. (Count)
system.cpu.MemDepUnit__2.insertedStores             0                       # Number of stores inserted to the mem dependence unit. (Count)
system.cpu.MemDepUnit__2.conflictingLoads            0                       # Number of conflicting loads. (Count)
system.cpu.MemDepUnit__2.conflictingStores            0                       # Number of conflicting stores. (Count)
system.cpu.MemDepUnit__3.insertedLoads              0                       # Number of loads inserted to the mem dependence unit. (Count)
system.cpu.MemDepUnit__3.insertedStores             0                       # Number of stores inserted to the mem dependence unit. (Count)
system.cpu.MemDepUnit__3.conflictingLoads            0                       # Number of conflicting loads. (Count)
system.cpu.MemDepUnit__3.conflictingStores            0                       # Number of conflicting stores. (Count)
system.cpu.branchPred.lookups                 1087615                       # Number of BP lookups (Count)
system.cpu.branchPred.condPredicted            870249                       # Number of conditional branches predicted (Count)
system.cpu.branchPred.condIncorrect              3926                       # Number of conditional branches incorrect (Count)
system.cpu.branchPred.BTBLookups               402201                       # Number of BTB lookups (Count)
system.cpu.branchPred.BTBHits                  400843                       # Number of BTB hits (Count)
system.cpu.branchPred.BTBHitRatio            0.996624                       # BTB Hit Ratio (Ratio)
system.cpu.branchPred.RASUsed                   50822                       # Number of times the RAS was used to get a target. (Count)
system.cpu.branchPred.RASIncorrect                  4                       # Number of incorrect RAS predictions. (Count)
system.cpu.branchPred.indirectLookups           12070                       # Number of indirect predictor lookups. (Count)
system.cpu.branchPred.indirectHits              11850                       # Number of indirect target hits. (Count)
system.cpu.branchPred.indirectMisses              220                       # Number of indirect misses. (Count)
system.cpu.branchPred.indirectMispredicted           81                       # Number of mispredicted indirect branches. (Count)
system.cpu.commit.commitSquashedInsts          260381                       # The number of squashed insts skipped by commit (Count)
system.cpu.commit.commitNonSpecStalls              36                       # The number of times commit has been forced to stall to communicate backwards (Count)
system.cpu.commit.branchMispredicts              3656                       # The number of times a branch was mispredicted (Count)
system.cpu.commit.numCommittedDist::samples      4831670                       # Number of insts commited each cycle (Count)
system.cpu.commit.numCommittedDist::mean     1.878814                       # Number of insts commited each cycle (Count)
system.cpu.commit.numCommittedDist::stdev     2.683850                       # Number of insts commited each cycle (Count)
system.cpu.commit.numCommittedDist::underflows            0      0.00%      0.00% # Number of insts commited each cycle (Count)
system.cpu.commit.numCommittedDist::0         2549266     52.76%     52.76% # Number of insts commited each cycle (Count)
system.cpu.commit.numCommittedDist::1          471950      9.77%     62.53% # Number of insts commited each cycle (Count)
system.cpu.commit.numCommittedDist::2          406261      8.41%     70.94% # Number of insts commited each cycle (Count)
system.cpu.commit.numCommittedDist::3          426137      8.82%     79.76% # Number of insts commited each cycle (Count)
system.cpu.commit.numCommittedDist::4          168946      3.50%     83.25% # Number of insts commited each cycle (Count)
system.cpu.commit.numCommittedDist::5          124417      2.58%     85.83% # Number of insts commited each cycle (Count)
system.cpu.commit.numCommittedDist::6           99703      2.06%     87.89% # Number of insts commited each cycle (Count)
system.cpu.commit.numCommittedDist::7           61079      1.26%     89.16% # Number of insts commited each cycle (Count)
system.cpu.commit.numCommittedDist::8          523911     10.84%    100.00% # Number of insts commited each cycle (Count)
system.cpu.commit.numCommittedDist::overflows            0      0.00%    100.00% # Number of insts commited each cycle (Count)
system.cpu.commit.numCommittedDist::min_value            0                       # Number of insts commited each cycle (Count)
system.cpu.commit.numCommittedDist::max_value            8                       # Number of insts commited each cycle (Count)
system.cpu.commit.numCommittedDist::total      4831670                       # Number of insts commited each cycle (Count)
system.cpu.commit.instsCommitted              5000003                       # Number of instructions committed (Count)
system.cpu.commit.opsCommitted                9077811                       # Number of ops (including micro ops) committed (Count)
system.cpu.commit.memRefs                     1910393                       # Number of memory references committed (Count)
system.cpu.commit.loads                       1172153                       # Number of loads committed (Count)
system.cpu.commit.amos                              0                       # Number of atomic instructions committed (Count)
system.cpu.commit.membars                          24                       # Number of memory barriers committed (Count)
system.cpu.commit.branches                    1036980                       # Number of branches committed (Count)
system.cpu.commit.vectorInstructions                0                       # Number of committed Vector instructions. (Count)
system.cpu.commit.floating                      91237                       # Number of committed floating point instructions. (Count)
system.cpu.commit.integer                     8979176                       # Number of committed integer instructions. (Count)
system.cpu.commit.functionCalls                 50275                       # Number of function calls committed. (Count)
system.cpu.commit.committedInstType_0::No_OpClass        21010      0.23%      0.23% # Class of committed instruction (Count)
system.cpu.commit.committedInstType_0::IntAlu      7056196     77.73%     77.96% # Class of committed instruction (Count)
system.cpu.commit.committedInstType_0::IntMult        17682      0.19%     78.16% # Class of committed instruction (Count)
system.cpu.commit.committedInstType_0::IntDiv           28      0.00%     78.16% # Class of committed instruction (Count)
system.cpu.commit.committedInstType_0::FloatAdd         5901      0.07%     78.22% # Class of committed instruction (Count)
system.cpu.commit.committedInstType_0::FloatCmp            0      0.00%     78.22% # Class of committed instruction (Count)
system.cpu.commit.committedInstType_0::FloatCvt            0      0.00%     78.22% # Class of committed instruction (Count)
system.cpu.commit.committedInstType_0::FloatMult            0      0.00%     78.22% # Class of committed instruction (Count)
system.cpu.commit.committedInstType_0::FloatMultAcc            0      0.00%     78.22% # Class of committed instruction (Count)
system.cpu.commit.committedInstType_0::FloatDiv            0      0.00%     78.22% # Class of committed instruction (Count)
system.cpu.commit.committedInstType_0::FloatMisc            0      0.00%     78.22% # Class of committed instruction (Count)
system.cpu.commit.committedInstType_0::FloatSqrt            0      0.00%     78.22% # Class of committed instruction (Count)
system.cpu.commit.committedInstType_0::SimdAdd            0      0.00%     78.22% # Class of committed instruction (Count)
system.cpu.commit.committedInstType_0::SimdAddAcc            0      0.00%     78.22% # Class of committed instruction (Count)
system.cpu.commit.committedInstType_0::SimdAlu           98      0.00%     78.22% # Class of committed instruction (Count)
system.cpu.commit.committedInstType_0::SimdCmp            0      0.00%     78.22% # Class of committed instruction (Count)
system.cpu.commit.committedInstType_0::SimdCvt        12596      0.14%     78.36% # Class of committed instruction (Count)
system.cpu.commit.committedInstType_0::SimdMisc        53907      0.59%     78.96% # Class of committed instruction (Count)
system.cpu.commit.committedInstType_0::SimdMult            0      0.00%     78.96% # Class of committed instruction (Count)
system.cpu.commit.committedInstType_0::SimdMultAcc            0      0.00%     78.96% # Class of committed instruction (Count)
system.cpu.commit.committedInstType_0::SimdShift            0      0.00%     78.96% # Class of committed instruction (Count)
system.cpu.commit.committedInstType_0::SimdShiftAcc            0      0.00%     78.96% # Class of committed instruction (Count)
system.cpu.commit.committedInstType_0::SimdDiv            0      0.00%     78.96% # Class of committed instruction (Count)
system.cpu.commit.committedInstType_0::SimdSqrt            0      0.00%     78.96% # Class of committed instruction (Count)
system.cpu.commit.committedInstType_0::SimdFloatAdd            0      0.00%     78.96% # Class of committed instruction (Count)
system.cpu.commit.committedInstType_0::SimdFloatAlu            0      0.00%     78.96% # Class of committed instruction (Count)
system.cpu.commit.committedInstType_0::SimdFloatCmp            0      0.00%     78.96% # Class of committed instruction (Count)
system.cpu.commit.committedInstType_0::SimdFloatCvt            0      0.00%     78.96% # Class of committed instruction (Count)
system.cpu.commit.committedInstType_0::SimdFloatDiv            0      0.00%     78.96% # Class of committed instruction (Count)
system.cpu.commit.committedInstType_0::SimdFloatMisc            0      0.00%     78.96% # Class of committed instruction (Count)
system.cpu.commit.committedInstType_0::SimdFloatMult            0      0.00%     78.96% # Class of committed instruction (Count)
system.cpu.commit.committedInstType_0::SimdFloatMultAcc            0      0.00%     78.96% # Class of committed instruction (Count)
system.cpu.commit.committedInstType_0::SimdFloatSqrt            0      0.00%     78.96% # Class of committed instruction (Count)
system.cpu.commit.committedInstType_0::SimdReduceAdd            0      0.00%     78.96% # Class of committed instruction (Count)
system.cpu.commit.committedInstType_0::SimdReduceAlu            0      0.00%     78.96% # Class of committed instruction (Count)
system.cpu.commit.committedInstType_0::SimdReduceCmp            0      0.00%     78.96% # Class of committed instruction (Count)
system.cpu.commit.committedInstType_0::SimdFloatReduceAdd            0      0.00%     78.96% # Class of committed instruction (Count)
system.cpu.commit.committedInstType_0::SimdFloatReduceCmp            0      0.00%     78.96% # Class of committed instruction (Count)
system.cpu.commit.committedInstType_0::SimdAes            0      0.00%     78.96% # Class of committed instruction (Count)
system.cpu.commit.committedInstType_0::SimdAesMix            0      0.00%     78.96% # Class of committed instruction (Count)
system.cpu.commit.committedInstType_0::SimdSha1Hash            0      0.00%     78.96% # Class of committed instruction (Count)
system.cpu.commit.committedInstType_0::SimdSha1Hash2            0      0.00%     78.96% # Class of committed instruction (Count)
system.cpu.commit.committedInstType_0::SimdSha256Hash            0      0.00%     78.96% # Class of committed instruction (Count)
system.cpu.commit.committedInstType_0::SimdSha256Hash2            0      0.00%     78.96% # Class of committed instruction (Count)
system.cpu.commit.committedInstType_0::SimdShaSigma2            0      0.00%     78.96% # Class of committed instruction (Count)
system.cpu.commit.committedInstType_0::SimdShaSigma3            0      0.00%     78.96% # Class of committed instruction (Count)
system.cpu.commit.committedInstType_0::SimdPredAlu            0      0.00%     78.96% # Class of committed instruction (Count)
system.cpu.commit.committedInstType_0::MemRead      1159565     12.77%     91.73% # Class of committed instruction (Count)
system.cpu.commit.committedInstType_0::MemWrite       738000      8.13%     99.86% # Class of committed instruction (Count)
system.cpu.commit.committedInstType_0::FloatMemRead        12588      0.14%    100.00% # Class of committed instruction (Count)
system.cpu.commit.committedInstType_0::FloatMemWrite          240      0.00%    100.00% # Class of committed instruction (Count)
system.cpu.commit.committedInstType_0::IprAccess            0      0.00%    100.00% # Class of committed instruction (Count)
system.cpu.commit.committedInstType_0::InstPrefetch            0      0.00%    100.00% # Class of committed instruction (Count)
system.cpu.commit.committedInstType_0::total      9077811                       # Class of committed instruction (Count)
system.cpu.commit.commitEligibleSamples        523911                       # number cycles where commit BW limit reached (Cycle)
system.cpu.dcache.demandHits::cpu.data        1678070                       # number of demand (read+write) hits (Count)
system.cpu.dcache.demandHits::total           1678070                       # number of demand (read+write) hits (Count)
system.cpu.dcache.overallHits::cpu.data       1678070                       # number of overall hits (Count)
system.cpu.dcache.overallHits::total          1678070                       # number of overall hits (Count)
system.cpu.dcache.demandMisses::cpu.data        14242                       # number of demand (read+write) misses (Count)
system.cpu.dcache.demandMisses::total           14242                       # number of demand (read+write) misses (Count)
system.cpu.dcache.overallMisses::cpu.data        14242                       # number of overall misses (Count)
system.cpu.dcache.overallMisses::total          14242                       # number of overall misses (Count)
system.cpu.dcache.demandMissLatency::cpu.data   1128961000                       # number of demand (read+write) miss ticks (Tick)
system.cpu.dcache.demandMissLatency::total   1128961000                       # number of demand (read+write) miss ticks (Tick)
system.cpu.dcache.overallMissLatency::cpu.data   1128961000                       # number of overall miss ticks (Tick)
system.cpu.dcache.overallMissLatency::total   1128961000                       # number of overall miss ticks (Tick)
system.cpu.dcache.demandAccesses::cpu.data      1692312                       # number of demand (read+write) accesses (Count)
system.cpu.dcache.demandAccesses::total       1692312                       # number of demand (read+write) accesses (Count)
system.cpu.dcache.overallAccesses::cpu.data      1692312                       # number of overall (read+write) accesses (Count)
system.cpu.dcache.overallAccesses::total      1692312                       # number of overall (read+write) accesses (Count)
system.cpu.dcache.demandMissRate::cpu.data     0.008416                       # miss rate for demand accesses (Ratio)
system.cpu.dcache.demandMissRate::total      0.008416                       # miss rate for demand accesses (Ratio)
system.cpu.dcache.overallMissRate::cpu.data     0.008416                       # miss rate for overall accesses (Ratio)
system.cpu.dcache.overallMissRate::total     0.008416                       # miss rate for overall accesses (Ratio)
system.cpu.dcache.demandAvgMissLatency::cpu.data 79269.835697                       # average overall miss latency in ticks ((Tick/Count))
system.cpu.dcache.demandAvgMissLatency::total 79269.835697                       # average overall miss latency in ticks ((Tick/Count))
system.cpu.dcache.overallAvgMissLatency::cpu.data 79269.835697                       # average overall miss latency ((Tick/Count))
system.cpu.dcache.overallAvgMissLatency::total 79269.835697                       # average overall miss latency ((Tick/Count))
system.cpu.dcache.blockedCycles::no_mshrs         4260                       # number of cycles access was blocked (Cycle)
system.cpu.dcache.blockedCycles::no_targets            0                       # number of cycles access was blocked (Cycle)
system.cpu.dcache.blockedCauses::no_mshrs           95                       # number of times access was blocked (Count)
system.cpu.dcache.blockedCauses::no_targets            0                       # number of times access was blocked (Count)
system.cpu.dcache.avgBlocked::no_mshrs      44.842105                       # average number of cycles each access was blocked ((Cycle/Count))
system.cpu.dcache.avgBlocked::no_targets          nan                       # average number of cycles each access was blocked ((Cycle/Count))
system.cpu.dcache.writebacks::writebacks        17571                       # number of writebacks (Count)
system.cpu.dcache.writebacks::total             17571                       # number of writebacks (Count)
system.cpu.dcache.demandMshrHits::cpu.data         2331                       # number of demand (read+write) MSHR hits (Count)
system.cpu.dcache.demandMshrHits::total          2331                       # number of demand (read+write) MSHR hits (Count)
system.cpu.dcache.overallMshrHits::cpu.data         2331                       # number of overall MSHR hits (Count)
system.cpu.dcache.overallMshrHits::total         2331                       # number of overall MSHR hits (Count)
system.cpu.dcache.demandMshrMisses::cpu.data        11911                       # number of demand (read+write) MSHR misses (Count)
system.cpu.dcache.demandMshrMisses::total        11911                       # number of demand (read+write) MSHR misses (Count)
system.cpu.dcache.overallMshrMisses::cpu.data        11911                       # number of overall MSHR misses (Count)
system.cpu.dcache.overallMshrMisses::cpu.dcache.prefetcher         7111                       # number of overall MSHR misses (Count)
system.cpu.dcache.overallMshrMisses::total        19022                       # number of overall MSHR misses (Count)
system.cpu.dcache.demandMshrMissLatency::cpu.data   1002366000                       # number of demand (read+write) MSHR miss ticks (Tick)
system.cpu.dcache.demandMshrMissLatency::total   1002366000                       # number of demand (read+write) MSHR miss ticks (Tick)
system.cpu.dcache.overallMshrMissLatency::cpu.data   1002366000                       # number of overall MSHR miss ticks (Tick)
system.cpu.dcache.overallMshrMissLatency::cpu.dcache.prefetcher    624717066                       # number of overall MSHR miss ticks (Tick)
system.cpu.dcache.overallMshrMissLatency::total   1627083066                       # number of overall MSHR miss ticks (Tick)
system.cpu.dcache.demandMshrMissRate::cpu.data     0.007038                       # mshr miss ratio for demand accesses (Ratio)
system.cpu.dcache.demandMshrMissRate::total     0.007038                       # mshr miss ratio for demand accesses (Ratio)
system.cpu.dcache.overallMshrMissRate::cpu.data     0.007038                       # mshr miss ratio for overall accesses (Ratio)
system.cpu.dcache.overallMshrMissRate::cpu.dcache.prefetcher          inf                       # mshr miss ratio for overall accesses (Ratio)
system.cpu.dcache.overallMshrMissRate::total     0.011240                       # mshr miss ratio for overall accesses (Ratio)
system.cpu.dcache.demandAvgMshrMissLatency::cpu.data 84154.646965                       # average overall mshr miss latency ((Tick/Count))
system.cpu.dcache.demandAvgMshrMissLatency::total 84154.646965                       # average overall mshr miss latency ((Tick/Count))
system.cpu.dcache.overallAvgMshrMissLatency::cpu.data 84154.646965                       # average overall mshr miss latency ((Tick/Count))
system.cpu.dcache.overallAvgMshrMissLatency::cpu.dcache.prefetcher 87852.210097                       # average overall mshr miss latency ((Tick/Count))
system.cpu.dcache.overallAvgMshrMissLatency::total 85536.908106                       # average overall mshr miss latency ((Tick/Count))
system.cpu.dcache.replacements                  17998                       # number of replacements (Count)
system.cpu.dcache.HardPFReq.mshrMisses::cpu.dcache.prefetcher         7111                       # number of HardPFReq MSHR misses (Count)
system.cpu.dcache.HardPFReq.mshrMisses::total         7111                       # number of HardPFReq MSHR misses (Count)
system.cpu.dcache.HardPFReq.mshrMissLatency::cpu.dcache.prefetcher    624717066                       # number of HardPFReq MSHR miss ticks (Tick)
system.cpu.dcache.HardPFReq.mshrMissLatency::total    624717066                       # number of HardPFReq MSHR miss ticks (Tick)
system.cpu.dcache.HardPFReq.mshrMissRate::cpu.dcache.prefetcher          inf                       # mshr miss rate for HardPFReq accesses (Ratio)
system.cpu.dcache.HardPFReq.mshrMissRate::total          inf                       # mshr miss rate for HardPFReq accesses (Ratio)
system.cpu.dcache.HardPFReq.avgMshrMissLatency::cpu.dcache.prefetcher 87852.210097                       # average HardPFReq mshr miss latency ((Tick/Count))
system.cpu.dcache.HardPFReq.avgMshrMissLatency::total 87852.210097                       # average HardPFReq mshr miss latency ((Tick/Count))
system.cpu.dcache.LockedRMWReadReq.hits::cpu.data           12                       # number of LockedRMWReadReq hits (Count)
system.cpu.dcache.LockedRMWReadReq.hits::total           12                       # number of LockedRMWReadReq hits (Count)
system.cpu.dcache.LockedRMWReadReq.accesses::cpu.data           12                       # number of LockedRMWReadReq accesses(hits+misses) (Count)
system.cpu.dcache.LockedRMWReadReq.accesses::total           12                       # number of LockedRMWReadReq accesses(hits+misses) (Count)
system.cpu.dcache.LockedRMWReadReq.mshrMissLatency::cpu.data       165000                       # number of LockedRMWReadReq MSHR miss ticks (Tick)
system.cpu.dcache.LockedRMWReadReq.mshrMissLatency::total       165000                       # number of LockedRMWReadReq MSHR miss ticks (Tick)
system.cpu.dcache.LockedRMWReadReq.avgMshrMissLatency::cpu.data          inf                       # average LockedRMWReadReq mshr miss latency ((Tick/Count))
system.cpu.dcache.LockedRMWReadReq.avgMshrMissLatency::total          inf                       # average LockedRMWReadReq mshr miss latency ((Tick/Count))
system.cpu.dcache.LockedRMWWriteReq.hits::cpu.data           12                       # number of LockedRMWWriteReq hits (Count)
system.cpu.dcache.LockedRMWWriteReq.hits::total           12                       # number of LockedRMWWriteReq hits (Count)
system.cpu.dcache.LockedRMWWriteReq.accesses::cpu.data           12                       # number of LockedRMWWriteReq accesses(hits+misses) (Count)
system.cpu.dcache.LockedRMWWriteReq.accesses::total           12                       # number of LockedRMWWriteReq accesses(hits+misses) (Count)
system.cpu.dcache.ReadReq.hits::cpu.data       949280                       # number of ReadReq hits (Count)
system.cpu.dcache.ReadReq.hits::total          949280                       # number of ReadReq hits (Count)
system.cpu.dcache.ReadReq.misses::cpu.data         4807                       # number of ReadReq misses (Count)
system.cpu.dcache.ReadReq.misses::total          4807                       # number of ReadReq misses (Count)
system.cpu.dcache.ReadReq.missLatency::cpu.data    319218000                       # number of ReadReq miss ticks (Tick)
system.cpu.dcache.ReadReq.missLatency::total    319218000                       # number of ReadReq miss ticks (Tick)
system.cpu.dcache.ReadReq.accesses::cpu.data       954087                       # number of ReadReq accesses(hits+misses) (Count)
system.cpu.dcache.ReadReq.accesses::total       954087                       # number of ReadReq accesses(hits+misses) (Count)
system.cpu.dcache.ReadReq.missRate::cpu.data     0.005038                       # miss rate for ReadReq accesses (Ratio)
system.cpu.dcache.ReadReq.missRate::total     0.005038                       # miss rate for ReadReq accesses (Ratio)
system.cpu.dcache.ReadReq.avgMissLatency::cpu.data 66406.906595                       # average ReadReq miss latency ((Tick/Count))
system.cpu.dcache.ReadReq.avgMissLatency::total 66406.906595                       # average ReadReq miss latency ((Tick/Count))
system.cpu.dcache.ReadReq.mshrHits::cpu.data         1931                       # number of ReadReq MSHR hits (Count)
system.cpu.dcache.ReadReq.mshrHits::total         1931                       # number of ReadReq MSHR hits (Count)
system.cpu.dcache.ReadReq.mshrMisses::cpu.data         2876                       # number of ReadReq MSHR misses (Count)
system.cpu.dcache.ReadReq.mshrMisses::total         2876                       # number of ReadReq MSHR misses (Count)
system.cpu.dcache.ReadReq.mshrMissLatency::cpu.data    231344000                       # number of ReadReq MSHR miss ticks (Tick)
system.cpu.dcache.ReadReq.mshrMissLatency::total    231344000                       # number of ReadReq MSHR miss ticks (Tick)
system.cpu.dcache.ReadReq.mshrMissRate::cpu.data     0.003014                       # mshr miss rate for ReadReq accesses (Ratio)
system.cpu.dcache.ReadReq.mshrMissRate::total     0.003014                       # mshr miss rate for ReadReq accesses (Ratio)
system.cpu.dcache.ReadReq.avgMshrMissLatency::cpu.data 80439.499305                       # average ReadReq mshr miss latency ((Tick/Count))
system.cpu.dcache.ReadReq.avgMshrMissLatency::total 80439.499305                       # average ReadReq mshr miss latency ((Tick/Count))
system.cpu.dcache.WriteReq.hits::cpu.data       728790                       # number of WriteReq hits (Count)
system.cpu.dcache.WriteReq.hits::total         728790                       # number of WriteReq hits (Count)
system.cpu.dcache.WriteReq.misses::cpu.data         9435                       # number of WriteReq misses (Count)
system.cpu.dcache.WriteReq.misses::total         9435                       # number of WriteReq misses (Count)
system.cpu.dcache.WriteReq.missLatency::cpu.data    809743000                       # number of WriteReq miss ticks (Tick)
system.cpu.dcache.WriteReq.missLatency::total    809743000                       # number of WriteReq miss ticks (Tick)
system.cpu.dcache.WriteReq.accesses::cpu.data       738225                       # number of WriteReq accesses(hits+misses) (Count)
system.cpu.dcache.WriteReq.accesses::total       738225                       # number of WriteReq accesses(hits+misses) (Count)
system.cpu.dcache.WriteReq.missRate::cpu.data     0.012781                       # miss rate for WriteReq accesses (Ratio)
system.cpu.dcache.WriteReq.missRate::total     0.012781                       # miss rate for WriteReq accesses (Ratio)
system.cpu.dcache.WriteReq.avgMissLatency::cpu.data 85823.317435                       # average WriteReq miss latency ((Tick/Count))
system.cpu.dcache.WriteReq.avgMissLatency::total 85823.317435                       # average WriteReq miss latency ((Tick/Count))
system.cpu.dcache.WriteReq.mshrHits::cpu.data          400                       # number of WriteReq MSHR hits (Count)
system.cpu.dcache.WriteReq.mshrHits::total          400                       # number of WriteReq MSHR hits (Count)
system.cpu.dcache.WriteReq.mshrMisses::cpu.data         9035                       # number of WriteReq MSHR misses (Count)
system.cpu.dcache.WriteReq.mshrMisses::total         9035                       # number of WriteReq MSHR misses (Count)
system.cpu.dcache.WriteReq.mshrMissLatency::cpu.data    771022000                       # number of WriteReq MSHR miss ticks (Tick)
system.cpu.dcache.WriteReq.mshrMissLatency::total    771022000                       # number of WriteReq MSHR miss ticks (Tick)
system.cpu.dcache.WriteReq.mshrMissRate::cpu.data     0.012239                       # mshr miss rate for WriteReq accesses (Ratio)
system.cpu.dcache.WriteReq.mshrMissRate::total     0.012239                       # mshr miss rate for WriteReq accesses (Ratio)
system.cpu.dcache.WriteReq.avgMshrMissLatency::cpu.data 85337.244051                       # average WriteReq mshr miss latency ((Tick/Count))
system.cpu.dcache.WriteReq.avgMshrMissLatency::total 85337.244051                       # average WriteReq mshr miss latency ((Tick/Count))
system.cpu.dcache.power_state.pwrStateResidencyTicks::UNDEFINED   4879963000                       # Cumulative time (in ticks) in various power states (Tick)
system.cpu.dcache.prefetcher.demandMshrMisses        11911                       # demands not covered by prefetchs (Count)
system.cpu.dcache.prefetcher.pfIssued            7166                       # number of hwpf issued (Count)
system.cpu.dcache.prefetcher.pfUnused               9                       # number of HardPF blocks evicted w/o reference (Count)
system.cpu.dcache.prefetcher.pfUseful            7090                       # number of useful prefetch (Count)
system.cpu.dcache.prefetcher.pfUsefulButMiss            0                       # number of hit on prefetch but cache block is not in an usable state (Count)
system.cpu.dcache.prefetcher.accuracy        0.989394                       # accuracy of the prefetcher (Count)
system.cpu.dcache.prefetcher.coverage        0.373138                       # coverage brought by this prefetcher (Count)
system.cpu.dcache.prefetcher.pfHitInCache           55                       # number of prefetches hitting in cache (Count)
system.cpu.dcache.prefetcher.pfHitInMSHR            0                       # number of prefetches hitting in a MSHR (Count)
system.cpu.dcache.prefetcher.pfHitInWB              0                       # number of prefetches hit in the Write Buffer (Count)
system.cpu.dcache.prefetcher.pfLate                55                       # number of late prefetches (hitting in cache, MSHR or WB) (Count)
system.cpu.dcache.prefetcher.pfIdentified         7337                       # number of prefetch candidates identified (Count)
system.cpu.dcache.prefetcher.pfBufferHit          164                       # number of redundant prefetches already in prefetch queue (Count)
system.cpu.dcache.prefetcher.pfInCache              0                       # number of redundant prefetches already in cache/mshr dropped (Count)
system.cpu.dcache.prefetcher.pfRemovedDemand            2                       # number of prefetches dropped due to a demand for the same address (Count)
system.cpu.dcache.prefetcher.pfRemovedFull            0                       # number of prefetches dropped due to prefetch queue size (Count)
system.cpu.dcache.prefetcher.pfSpanPage          1463                       # number of prefetches that crossed the page (Count)
system.cpu.dcache.prefetcher.pfUsefulSpanPage            0                       # number of prefetches that is useful and crossed the page (Count)
system.cpu.dcache.prefetcher.power_state.pwrStateResidencyTicks::UNDEFINED   4879963000                       # Cumulative time (in ticks) in various power states (Tick)
system.cpu.dcache.tags.tagsInUse           997.013923                       # Average ticks per tags in use ((Tick/Count))
system.cpu.dcache.tags.totalRefs              1697116                       # Total number of references to valid blocks. (Count)
system.cpu.dcache.tags.sampledRefs              19022                       # Sample count of references to valid blocks. (Count)
system.cpu.dcache.tags.avgRefs              89.218589                       # Average number of references to valid blocks. ((Count/Count))
system.cpu.dcache.tags.warmupTick              188000                       # The tick when the warmup percentage was hit. (Tick)
system.cpu.dcache.tags.occupancies::cpu.data   635.532240                       # Average occupied blocks per tick, per requestor ((Count/Tick))
system.cpu.dcache.tags.occupancies::cpu.dcache.prefetcher   361.481683                       # Average occupied blocks per tick, per requestor ((Count/Tick))
system.cpu.dcache.tags.avgOccs::cpu.data     0.620637                       # Average percentage of cache occupancy ((Ratio/Tick))
system.cpu.dcache.tags.avgOccs::cpu.dcache.prefetcher     0.353009                       # Average percentage of cache occupancy ((Ratio/Tick))
system.cpu.dcache.tags.avgOccs::total        0.973646                       # Average percentage of cache occupancy ((Ratio/Tick))
system.cpu.dcache.tags.occupanciesTaskId::1022          371                       # Occupied blocks per task id (Count)
system.cpu.dcache.tags.occupanciesTaskId::1024          653                       # Occupied blocks per task id (Count)
system.cpu.dcache.tags.ageTaskId_1022::0           13                       # Occupied blocks per task id, per block age (Count)
system.cpu.dcache.tags.ageTaskId_1022::1          132                       # Occupied blocks per task id, per block age (Count)
system.cpu.dcache.tags.ageTaskId_1022::2          224                       # Occupied blocks per task id, per block age (Count)
system.cpu.dcache.tags.ageTaskId_1022::3            2                       # Occupied blocks per task id, per block age (Count)
system.cpu.dcache.tags.ageTaskId_1024::0           29                       # Occupied blocks per task id, per block age (Count)
system.cpu.dcache.tags.ageTaskId_1024::1          217                       # Occupied blocks per task id, per block age (Count)
system.cpu.dcache.tags.ageTaskId_1024::2          366                       # Occupied blocks per task id, per block age (Count)
system.cpu.dcache.tags.ageTaskId_1024::3           41                       # Occupied blocks per task id, per block age (Count)
system.cpu.dcache.tags.ratioOccsTaskId::1022     0.362305                       # Ratio of occupied blocks and all blocks, per task id (Ratio)
system.cpu.dcache.tags.ratioOccsTaskId::1024     0.637695                       # Ratio of occupied blocks and all blocks, per task id (Ratio)
system.cpu.dcache.tags.tagAccesses            6788366                       # Number of tag accesses (Count)
system.cpu.dcache.tags.dataAccesses           6788366                       # Number of data accesses (Count)
system.cpu.dcache.tags.power_state.pwrStateResidencyTicks::UNDEFINED   4879963000                       # Cumulative time (in ticks) in various power states (Tick)
system.cpu.decode.idleCycles                   369954                       # Number of cycles decode is idle (Cycle)
system.cpu.decode.blockedCycles               3277256                       # Number of cycles decode is blocked (Cycle)
system.cpu.decode.runCycles                    372155                       # Number of cycles decode is running (Cycle)
system.cpu.decode.unblockCycles                841727                       # Number of cycles decode is unblocking (Cycle)
system.cpu.decode.squashCycles                   4157                       # Number of cycles decode is squashing (Cycle)
system.cpu.decode.branchResolved               394705                       # Number of times decode resolved a branch (Count)
system.cpu.decode.branchMispred                   301                       # Number of times decode detected a branch misprediction (Count)
system.cpu.decode.decodedInsts                9362703                       # Number of instructions handled by decode (Count)
system.cpu.decode.squashedInsts                  1401                       # Number of squashed instructions handled by decode (Count)
system.cpu.fetch.icacheStallCycles             762960                       # Number of cycles fetch is stalled on an Icache miss (Cycle)
system.cpu.fetch.insts                        5255033                       # Number of instructions fetch has processed (Count)
system.cpu.fetch.branches                     1087615                       # Number of branches that fetch encountered (Count)
system.cpu.fetch.predictedBranches             463515                       # Number of branches that fetch has predicted taken (Count)
system.cpu.fetch.cycles                       4097561                       # Number of cycles fetch has run and was not squashing or blocked (Cycle)
system.cpu.fetch.squashCycles                    8910                       # Number of cycles fetch has spent squashing (Cycle)
system.cpu.fetch.miscStallCycles                   39                       # Number of cycles fetch has spent waiting on interrupts, or bad addresses, or out of MSHRs (Cycle)
system.cpu.fetch.pendingTrapStallCycles           234                       # Number of stall cycles due to pending traps (Cycle)
system.cpu.fetch.cacheLines                    743349                       # Number of cache lines fetched (Count)
system.cpu.fetch.icacheSquashes                   552                       # Number of outstanding Icache misses that were squashed (Count)
system.cpu.fetch.nisnDist::samples            4865249                       # Number of instructions fetched each cycle (Total) (Count)
system.cpu.fetch.nisnDist::mean              1.954463                       # Number of instructions fetched each cycle (Total) (Count)
system.cpu.fetch.nisnDist::stdev             3.059118                       # Number of instructions fetched each cycle (Total) (Count)
system.cpu.fetch.nisnDist::underflows               0      0.00%      0.00% # Number of instructions fetched each cycle (Total) (Count)
system.cpu.fetch.nisnDist::0                  3159366     64.94%     64.94% # Number of instructions fetched each cycle (Total) (Count)
system.cpu.fetch.nisnDist::1                   127521      2.62%     67.56% # Number of instructions fetched each cycle (Total) (Count)
system.cpu.fetch.nisnDist::2                   191186      3.93%     71.49% # Number of instructions fetched each cycle (Total) (Count)
system.cpu.fetch.nisnDist::3                   174845      3.59%     75.08% # Number of instructions fetched each cycle (Total) (Count)
system.cpu.fetch.nisnDist::4                    92834      1.91%     76.99% # Number of instructions fetched each cycle (Total) (Count)
system.cpu.fetch.nisnDist::5                   178172      3.66%     80.65% # Number of instructions fetched each cycle (Total) (Count)
system.cpu.fetch.nisnDist::6                   119335      2.45%     83.10% # Number of instructions fetched each cycle (Total) (Count)
system.cpu.fetch.nisnDist::7                    79604      1.64%     84.74% # Number of instructions fetched each cycle (Total) (Count)
system.cpu.fetch.nisnDist::8                   742386     15.26%    100.00% # Number of instructions fetched each cycle (Total) (Count)
system.cpu.fetch.nisnDist::overflows                0      0.00%    100.00% # Number of instructions fetched each cycle (Total) (Count)
system.cpu.fetch.nisnDist::min_value                0                       # Number of instructions fetched each cycle (Total) (Count)
system.cpu.fetch.nisnDist::max_value                8                       # Number of instructions fetched each cycle (Total) (Count)
system.cpu.fetch.nisnDist::total              4865249                       # Number of instructions fetched each cycle (Total) (Count)
system.cpu.fetch.branchRate                  0.222873                       # Number of branch fetches per cycle (Ratio)
system.cpu.fetch.rate                        1.076856                       # Number of inst fetches per cycle ((Count/Cycle))
system.cpu.icache.demandHits::cpu.inst         742570                       # number of demand (read+write) hits (Count)
system.cpu.icache.demandHits::total            742570                       # number of demand (read+write) hits (Count)
system.cpu.icache.overallHits::cpu.inst        742570                       # number of overall hits (Count)
system.cpu.icache.overallHits::total           742570                       # number of overall hits (Count)
system.cpu.icache.demandMisses::cpu.inst          779                       # number of demand (read+write) misses (Count)
system.cpu.icache.demandMisses::total             779                       # number of demand (read+write) misses (Count)
system.cpu.icache.overallMisses::cpu.inst          779                       # number of overall misses (Count)
system.cpu.icache.overallMisses::total            779                       # number of overall misses (Count)
system.cpu.icache.demandMissLatency::cpu.inst     56376000                       # number of demand (read+write) miss ticks (Tick)
system.cpu.icache.demandMissLatency::total     56376000                       # number of demand (read+write) miss ticks (Tick)
system.cpu.icache.overallMissLatency::cpu.inst     56376000                       # number of overall miss ticks (Tick)
system.cpu.icache.overallMissLatency::total     56376000                       # number of overall miss ticks (Tick)
system.cpu.icache.demandAccesses::cpu.inst       743349                       # number of demand (read+write) accesses (Count)
system.cpu.icache.demandAccesses::total        743349                       # number of demand (read+write) accesses (Count)
system.cpu.icache.overallAccesses::cpu.inst       743349                       # number of overall (read+write) accesses (Count)
system.cpu.icache.overallAccesses::total       743349                       # number of overall (read+write) accesses (Count)
system.cpu.icache.demandMissRate::cpu.inst     0.001048                       # miss rate for demand accesses (Ratio)
system.cpu.icache.demandMissRate::total      0.001048                       # miss rate for demand accesses (Ratio)
system.cpu.icache.overallMissRate::cpu.inst     0.001048                       # miss rate for overall accesses (Ratio)
system.cpu.icache.overallMissRate::total     0.001048                       # miss rate for overall accesses (Ratio)
system.cpu.icache.demandAvgMissLatency::cpu.inst 72369.704750                       # average overall miss latency in ticks ((Tick/Count))
system.cpu.icache.demandAvgMissLatency::total 72369.704750                       # average overall miss latency in ticks ((Tick/Count))
system.cpu.icache.overallAvgMissLatency::cpu.inst 72369.704750                       # average overall miss latency ((Tick/Count))
system.cpu.icache.overallAvgMissLatency::total 72369.704750                       # average overall miss latency ((Tick/Count))
system.cpu.icache.blockedCycles::no_mshrs           20                       # number of cycles access was blocked (Cycle)
system.cpu.icache.blockedCycles::no_targets            0                       # number of cycles access was blocked (Cycle)
system.cpu.icache.blockedCauses::no_mshrs            1                       # number of times access was blocked (Count)
system.cpu.icache.blockedCauses::no_targets            0                       # number of times access was blocked (Count)
system.cpu.icache.avgBlocked::no_mshrs             20                       # average number of cycles each access was blocked ((Cycle/Count))
system.cpu.icache.avgBlocked::no_targets          nan                       # average number of cycles each access was blocked ((Cycle/Count))
system.cpu.icache.demandMshrHits::cpu.inst          196                       # number of demand (read+write) MSHR hits (Count)
system.cpu.icache.demandMshrHits::total           196                       # number of demand (read+write) MSHR hits (Count)
system.cpu.icache.overallMshrHits::cpu.inst          196                       # number of overall MSHR hits (Count)
system.cpu.icache.overallMshrHits::total          196                       # number of overall MSHR hits (Count)
system.cpu.icache.demandMshrMisses::cpu.inst          583                       # number of demand (read+write) MSHR misses (Count)
system.cpu.icache.demandMshrMisses::total          583                       # number of demand (read+write) MSHR misses (Count)
system.cpu.icache.overallMshrMisses::cpu.inst          583                       # number of overall MSHR misses (Count)
system.cpu.icache.overallMshrMisses::total          583                       # number of overall MSHR misses (Count)
system.cpu.icache.demandMshrMissLatency::cpu.inst     45999000                       # number of demand (read+write) MSHR miss ticks (Tick)
system.cpu.icache.demandMshrMissLatency::total     45999000                       # number of demand (read+write) MSHR miss ticks (Tick)
system.cpu.icache.overallMshrMissLatency::cpu.inst     45999000                       # number of overall MSHR miss ticks (Tick)
system.cpu.icache.overallMshrMissLatency::total     45999000                       # number of overall MSHR miss ticks (Tick)
system.cpu.icache.demandMshrMissRate::cpu.inst     0.000784                       # mshr miss ratio for demand accesses (Ratio)
system.cpu.icache.demandMshrMissRate::total     0.000784                       # mshr miss ratio for demand accesses (Ratio)
system.cpu.icache.overallMshrMissRate::cpu.inst     0.000784                       # mshr miss ratio for overall accesses (Ratio)
system.cpu.icache.overallMshrMissRate::total     0.000784                       # mshr miss ratio for overall accesses (Ratio)
system.cpu.icache.demandAvgMshrMissLatency::cpu.inst 78900.514580                       # average overall mshr miss latency ((Tick/Count))
system.cpu.icache.demandAvgMshrMissLatency::total 78900.514580                       # average overall mshr miss latency ((Tick/Count))
system.cpu.icache.overallAvgMshrMissLatency::cpu.inst 78900.514580                       # average overall mshr miss latency ((Tick/Count))
system.cpu.icache.overallAvgMshrMissLatency::total 78900.514580                       # average overall mshr miss latency ((Tick/Count))
system.cpu.icache.replacements                     16                       # number of replacements (Count)
system.cpu.icache.ReadReq.hits::cpu.inst       742570                       # number of ReadReq hits (Count)
system.cpu.icache.ReadReq.hits::total          742570                       # number of ReadReq hits (Count)
system.cpu.icache.ReadReq.misses::cpu.inst          779                       # number of ReadReq misses (Count)
system.cpu.icache.ReadReq.misses::total           779                       # number of ReadReq misses (Count)
system.cpu.icache.ReadReq.missLatency::cpu.inst     56376000                       # number of ReadReq miss ticks (Tick)
system.cpu.icache.ReadReq.missLatency::total     56376000                       # number of ReadReq miss ticks (Tick)
system.cpu.icache.ReadReq.accesses::cpu.inst       743349                       # number of ReadReq accesses(hits+misses) (Count)
system.cpu.icache.ReadReq.accesses::total       743349                       # number of ReadReq accesses(hits+misses) (Count)
system.cpu.icache.ReadReq.missRate::cpu.inst     0.001048                       # miss rate for ReadReq accesses (Ratio)
system.cpu.icache.ReadReq.missRate::total     0.001048                       # miss rate for ReadReq accesses (Ratio)
system.cpu.icache.ReadReq.avgMissLatency::cpu.inst 72369.704750                       # average ReadReq miss latency ((Tick/Count))
system.cpu.icache.ReadReq.avgMissLatency::total 72369.704750                       # average ReadReq miss latency ((Tick/Count))
system.cpu.icache.ReadReq.mshrHits::cpu.inst          196                       # number of ReadReq MSHR hits (Count)
system.cpu.icache.ReadReq.mshrHits::total          196                       # number of ReadReq MSHR hits (Count)
system.cpu.icache.ReadReq.mshrMisses::cpu.inst          583                       # number of ReadReq MSHR misses (Count)
system.cpu.icache.ReadReq.mshrMisses::total          583                       # number of ReadReq MSHR misses (Count)
system.cpu.icache.ReadReq.mshrMissLatency::cpu.inst     45999000                       # number of ReadReq MSHR miss ticks (Tick)
system.cpu.icache.ReadReq.mshrMissLatency::total     45999000                       # number of ReadReq MSHR miss ticks (Tick)
system.cpu.icache.ReadReq.mshrMissRate::cpu.inst     0.000784                       # mshr miss rate for ReadReq accesses (Ratio)
system.cpu.icache.ReadReq.mshrMissRate::total     0.000784                       # mshr miss rate for ReadReq accesses (Ratio)
system.cpu.icache.ReadReq.avgMshrMissLatency::cpu.inst 78900.514580                       # average ReadReq mshr miss latency ((Tick/Count))
system.cpu.icache.ReadReq.avgMshrMissLatency::total 78900.514580                       # average ReadReq mshr miss latency ((Tick/Count))
system.cpu.icache.power_state.pwrStateResidencyTicks::UNDEFINED   4879963000                       # Cumulative time (in ticks) in various power states (Tick)
system.cpu.icache.prefetcher.demandMshrMisses          583                       # demands not covered by prefetchs (Count)
system.cpu.icache.prefetcher.pfIssued               0                       # number of hwpf issued (Count)
system.cpu.icache.prefetcher.pfUseful               0                       # number of useful prefetch (Count)
system.cpu.icache.prefetcher.pfUsefulButMiss            0                       # number of hit on prefetch but cache block is not in an usable state (Count)
system.cpu.icache.prefetcher.accuracy             nan                       # accuracy of the prefetcher (Count)
system.cpu.icache.prefetcher.coverage               0                       # coverage brought by this prefetcher (Count)
system.cpu.icache.prefetcher.pfHitInCache            0                       # number of prefetches hitting in cache (Count)
system.cpu.icache.prefetcher.pfHitInMSHR            0                       # number of prefetches hitting in a MSHR (Count)
system.cpu.icache.prefetcher.pfHitInWB              0                       # number of prefetches hit in the Write Buffer (Count)
system.cpu.icache.prefetcher.pfLate                 0                       # number of late prefetches (hitting in cache, MSHR or WB) (Count)
system.cpu.icache.prefetcher.pfIdentified            0                       # number of prefetch candidates identified (Count)
system.cpu.icache.prefetcher.pfBufferHit            0                       # number of redundant prefetches already in prefetch queue (Count)
system.cpu.icache.prefetcher.pfInCache              0                       # number of redundant prefetches already in cache/mshr dropped (Count)
system.cpu.icache.prefetcher.pfRemovedDemand            0                       # number of prefetches dropped due to a demand for the same address (Count)
system.cpu.icache.prefetcher.pfRemovedFull            0                       # number of prefetches dropped due to prefetch queue size (Count)
system.cpu.icache.prefetcher.pfSpanPage             0                       # number of prefetches that crossed the page (Count)
system.cpu.icache.prefetcher.pfUsefulSpanPage            0                       # number of prefetches that is useful and crossed the page (Count)
system.cpu.icache.prefetcher.power_state.pwrStateResidencyTicks::UNDEFINED   4879963000                       # Cumulative time (in ticks) in various power states (Tick)
system.cpu.icache.tags.tagsInUse           561.883047                       # Average ticks per tags in use ((Tick/Count))
system.cpu.icache.tags.totalRefs               743153                       # Total number of references to valid blocks. (Count)
system.cpu.icache.tags.sampledRefs                583                       # Sample count of references to valid blocks. (Count)
system.cpu.icache.tags.avgRefs            1274.704974                       # Average number of references to valid blocks. ((Count/Count))
system.cpu.icache.tags.warmupTick               88000                       # The tick when the warmup percentage was hit. (Tick)
system.cpu.icache.tags.occupancies::cpu.inst   561.883047                       # Average occupied blocks per tick, per requestor ((Count/Tick))
system.cpu.icache.tags.avgOccs::cpu.inst     0.548714                       # Average percentage of cache occupancy ((Ratio/Tick))
system.cpu.icache.tags.avgOccs::total        0.548714                       # Average percentage of cache occupancy ((Ratio/Tick))
system.cpu.icache.tags.occupanciesTaskId::1024          567                       # Occupied blocks per task id (Count)
system.cpu.icache.tags.ageTaskId_1024::3          567                       # Occupied blocks per task id, per block age (Count)
system.cpu.icache.tags.ratioOccsTaskId::1024     0.553711                       # Ratio of occupied blocks and all blocks, per task id (Ratio)
system.cpu.icache.tags.tagAccesses            2973979                       # Number of tag accesses (Count)
system.cpu.icache.tags.dataAccesses           2973979                       # Number of data accesses (Count)
system.cpu.icache.tags.power_state.pwrStateResidencyTicks::UNDEFINED   4879963000                       # Cumulative time (in ticks) in various power states (Tick)
system.cpu.iew.idleCycles                           0                       # Number of cycles IEW is idle (Cycle)
system.cpu.iew.squashCycles                      4157                       # Number of cycles IEW is squashing (Cycle)
system.cpu.iew.blockCycles                      41092                       # Number of cycles IEW is blocking (Cycle)
system.cpu.iew.unblockCycles                   112126                       # Number of cycles IEW is unblocking (Cycle)
system.cpu.iew.dispatchedInsts                9338852                       # Number of instructions dispatched to IQ (Count)
system.cpu.iew.dispSquashedInsts                   49                       # Number of squashed instructions skipped by dispatch (Count)
system.cpu.iew.dispLoadInsts                  1196020                       # Number of dispatched load instructions (Count)
system.cpu.iew.dispStoreInsts                  748596                       # Number of dispatched store instructions (Count)
system.cpu.iew.dispNonSpecInsts                    75                       # Number of dispatched non-speculative instructions (Count)
[...]
system.mem_ctrl.dram.numWrites::writebacks        14519                       # Number of write requests responded to by this memory (Count)
system.mem_ctrl.dram.numWrites::total           14519                       # Number of write requests responded to by this memory (Count)
system.mem_ctrl.dram.bwRead::cpu.inst         7514811                       # Total read bandwidth from this memory ((Byte/Second))
system.mem_ctrl.dram.bwRead::cpu.data       153745428                       # Total read bandwidth from this memory ((Byte/Second))
system.mem_ctrl.dram.bwRead::cpu.dcache.prefetcher     92551521                       # Total read bandwidth from this memory ((Byte/Second))
system.mem_ctrl.dram.bwRead::l2cache.prefetcher      3121335                       # Total read bandwidth from this memory ((Byte/Second))
system.mem_ctrl.dram.bwRead::total          256933096                       # Total read bandwidth from this memory ((Byte/Second))
system.mem_ctrl.dram.bwInstRead::cpu.inst      7514811                       # Instruction read bandwidth from this memory ((Byte/Second))
system.mem_ctrl.dram.bwInstRead::total        7514811                       # Instruction read bandwidth from this memory ((Byte/Second))
system.mem_ctrl.dram.bwWrite::writebacks    190414558                       # Write bandwidth from this memory ((Byte/Second))
system.mem_ctrl.dram.bwWrite::total         190414558                       # Write bandwidth from this memory ((Byte/Second))
system.mem_ctrl.dram.bwTotal::writebacks    190414558                       # Total bandwidth to/from this memory ((Byte/Second))
system.mem_ctrl.dram.bwTotal::cpu.inst        7514811                       # Total bandwidth to/from this memory ((Byte/Second))
system.mem_ctrl.dram.bwTotal::cpu.data      153745428                       # Total bandwidth to/from this memory ((Byte/Second))
system.mem_ctrl.dram.bwTotal::cpu.dcache.prefetcher     92551521                       # Total bandwidth to/from this memory ((Byte/Second))
system.mem_ctrl.dram.bwTotal::l2cache.prefetcher      3121335                       # Total bandwidth to/from this memory ((Byte/Second))
system.mem_ctrl.dram.bwTotal::total         447347654                       # Total bandwidth to/from this memory ((Byte/Second))
system.mem_ctrl.dram.readBursts                 19591                       # Number of DRAM read bursts (Count)
system.mem_ctrl.dram.writeBursts                14490                       # Number of DRAM write bursts (Count)
system.mem_ctrl.dram.perBankRdBursts::0          1213                       # Per bank write bursts (Count)
system.mem_ctrl.dram.perBankRdBursts::1          1176                       # Per bank write bursts (Count)
system.mem_ctrl.dram.perBankRdBursts::2          1230                       # Per bank write bursts (Count)
system.mem_ctrl.dram.perBankRdBursts::3          1178                       # Per bank write bursts (Count)
system.mem_ctrl.dram.perBankRdBursts::4          1165                       # Per bank write bursts (Count)
system.mem_ctrl.dram.perBankRdBursts::5          1233                       # Per bank write bursts (Count)
system.mem_ctrl.dram.perBankRdBursts::6          1213                       # Per bank write bursts (Count)
system.mem_ctrl.dram.perBankRdBursts::7          1203                       # Per bank write bursts (Count)
system.mem_ctrl.dram.perBankRdBursts::8          1251                       # Per bank write bursts (Count)
system.mem_ctrl.dram.perBankRdBursts::9          1188                       # Per bank write bursts (Count)
system.mem_ctrl.dram.perBankRdBursts::10         1579                       # Per bank write bursts (Count)
system.mem_ctrl.dram.perBankRdBursts::11         1266                       # Per bank write bursts (Count)
system.mem_ctrl.dram.perBankRdBursts::12         1192                       # Per bank write bursts (Count)
system.mem_ctrl.dram.perBankRdBursts::13         1159                       # Per bank write bursts (Count)
system.mem_ctrl.dram.perBankRdBursts::14         1171                       # Per bank write bursts (Count)
system.mem_ctrl.dram.perBankRdBursts::15         1174                       # Per bank write bursts (Count)
system.mem_ctrl.dram.perBankWrBursts::0           896                       # Per bank write bursts (Count)
system.mem_ctrl.dram.perBankWrBursts::1           896                       # Per bank write bursts (Count)
system.mem_ctrl.dram.perBankWrBursts::2           938                       # Per bank write bursts (Count)
system.mem_ctrl.dram.perBankWrBursts::3           912                       # Per bank write bursts (Count)
system.mem_ctrl.dram.perBankWrBursts::4           898                       # Per bank write bursts (Count)
system.mem_ctrl.dram.perBankWrBursts::5           919                       # Per bank write bursts (Count)
system.mem_ctrl.dram.perBankWrBursts::6           903                       # Per bank write bursts (Count)
system.mem_ctrl.dram.perBankWrBursts::7           897                       # Per bank write bursts (Count)
system.mem_ctrl.dram.perBankWrBursts::8           928                       # Per bank write bursts (Count)
system.mem_ctrl.dram.perBankWrBursts::9           903                       # Per bank write bursts (Count)
system.mem_ctrl.dram.perBankWrBursts::10          880                       # Per bank write bursts (Count)
system.mem_ctrl.dram.perBankWrBursts::11          926                       # Per bank write bursts (Count)
system.mem_ctrl.dram.perBankWrBursts::12          896                       # Per bank write bursts (Count)
system.mem_ctrl.dram.perBankWrBursts::13          832                       # Per bank write bursts (Count)
system.mem_ctrl.dram.perBankWrBursts::14          970                       # Per bank write bursts (Count)
system.mem_ctrl.dram.perBankWrBursts::15          896                       # Per bank write bursts (Count)
system.mem_ctrl.dram.totQLat                261598951                       # Total ticks spent queuing (Tick)
system.mem_ctrl.dram.totBusLat               97955000                       # Total ticks spent in databus transfers (Tick)
system.mem_ctrl.dram.totMemAccLat           628930201                       # Total ticks spent from burst creation until serviced by the DRAM (Tick)
system.mem_ctrl.dram.avgQLat                 13353.02                       # Average queueing delay per DRAM burst ((Tick/Count))
system.mem_ctrl.dram.avgBusLat                5000.00                       # Average bus latency per DRAM burst ((Tick/Count))
system.mem_ctrl.dram.avgMemAccLat            32103.02                       # Average memory access latency per DRAM burst ((Tick/Count))
system.mem_ctrl.dram.readRowHits                16715                       # Number of row buffer hits during reads (Count)
system.mem_ctrl.dram.writeRowHits               12886                       # Number of row buffer hits during writes (Count)
system.mem_ctrl.dram.readRowHitRate             85.32                       # Row buffer hit rate for reads (Ratio)
system.mem_ctrl.dram.writeRowHitRate            88.93                       # Row buffer hit rate for writes (Ratio)
system.mem_ctrl.dram.bytesPerActivate::samples         4476                       # Bytes accessed per row activation (Byte)
system.mem_ctrl.dram.bytesPerActivate::mean   487.134942                       # Bytes accessed per row activation (Byte)
system.mem_ctrl.dram.bytesPerActivate::gmean   341.069084                       # Bytes accessed per row activation (Byte)
system.mem_ctrl.dram.bytesPerActivate::stdev   341.197191                       # Bytes accessed per row activation (Byte)
system.mem_ctrl.dram.bytesPerActivate::0-127          667     14.90%     14.90% # Bytes accessed per row activation (Byte)
system.mem_ctrl.dram.bytesPerActivate::128-255          751     16.78%     31.68% # Bytes accessed per row activation (Byte)
system.mem_ctrl.dram.bytesPerActivate::256-383          561     12.53%     44.21% # Bytes accessed per row activation (Byte)
system.mem_ctrl.dram.bytesPerActivate::384-511          444      9.92%     54.13% # Bytes accessed per row activation (Byte)
system.mem_ctrl.dram.bytesPerActivate::512-639          404      9.03%     63.16% # Bytes accessed per row activation (Byte)
system.mem_ctrl.dram.bytesPerActivate::640-767          387      8.65%     71.81% # Bytes accessed per row activation (Byte)
system.mem_ctrl.dram.bytesPerActivate::768-895          307      6.86%     78.66% # Bytes accessed per row activation (Byte)
system.mem_ctrl.dram.bytesPerActivate::896-1023          305      6.81%     85.48% # Bytes accessed per row activation (Byte)
system.mem_ctrl.dram.bytesPerActivate::1024-1151          650     14.52%    100.00% # Bytes accessed per row activation (Byte)
system.mem_ctrl.dram.bytesPerActivate::total         4476                       # Bytes accessed per row activation (Byte)
system.mem_ctrl.dram.bytesRead                1253824                       # Total bytes read (Byte)
system.mem_ctrl.dram.bytesWritten              927360                       # Total bytes written (Byte)
system.mem_ctrl.dram.avgRdBW               256.933096                       # Average DRAM read bandwidth in MiBytes/s ((Byte/Second))
system.mem_ctrl.dram.avgWrBW               190.034228                       # Average DRAM write bandwidth in MiBytes/s ((Byte/Second))
system.mem_ctrl.dram.peakBW                  12800.00                       # Theoretical peak bandwidth in MiByte/s ((Byte/Second))
system.mem_ctrl.dram.busUtil                     3.49                       # Data bus utilization in percentage (Ratio)
system.mem_ctrl.dram.busUtilRead                 2.01                       # Data bus utilization in percentage for reads (Ratio)
system.mem_ctrl.dram.busUtilWrite                1.48                       # Data bus utilization in percentage for writes (Ratio)
system.mem_ctrl.dram.pageHitRate                86.85                       # Row buffer hit rate, read and write combined (Ratio)
system.mem_ctrl.dram.power_state.pwrStateResidencyTicks::UNDEFINED   4879963000                       # Cumulative time (in ticks) in various power states (Tick)
system.mem_ctrl.dram.rank0.actEnergy         15251040                       # Energy for activate commands per rank (pJ) (Joule)
system.mem_ctrl.dram.rank0.preEnergy          8106120                       # Energy for precharge commands per rank (pJ) (Joule)
system.mem_ctrl.dram.rank0.readEnergy        68622540                       # Energy for read commands per rank (pJ) (Joule)
system.mem_ctrl.dram.rank0.writeEnergy       37891980                       # Energy for write commands per rank (pJ) (Joule)
system.mem_ctrl.dram.rank0.refreshEnergy 384764640.000000                       # Energy for refresh commands per rank (pJ) (Joule)
system.mem_ctrl.dram.rank0.actBackEnergy   1333877520                       # Energy for active background per rank (pJ) (Joule)
system.mem_ctrl.dram.rank0.preBackEnergy    750640800                       # Energy for precharge background per rank (pJ) (Joule)
system.mem_ctrl.dram.rank0.actPowerDownEnergy            0                       # Energy for active power-down per rank (pJ) (Joule)
system.mem_ctrl.dram.rank0.prePowerDownEnergy            0                       # Energy for precharge power-down per rank (pJ) (Joule)
system.mem_ctrl.dram.rank0.selfRefreshEnergy            0                       # Energy for self refresh per rank (pJ) (Joule)
system.mem_ctrl.dram.rank0.totalEnergy     2599154640                       # Total energy per rank (pJ) (Joule)
system.mem_ctrl.dram.rank0.averagePower    532.617694                       # Core power per rank (mW) (Watt)
system.mem_ctrl.dram.rank0.totalIdleTime            0                       # Total Idle time Per DRAM Rank (Tick)
system.mem_ctrl.dram.rank0.pwrStateTime::IDLE   1938395252                       # Time in different power states (Tick)
system.mem_ctrl.dram.rank0.pwrStateTime::REF    162760000                       # Time in different power states (Tick)
system.mem_ctrl.dram.rank0.pwrStateTime::SREF            0                       # Time in different power states (Tick)
system.mem_ctrl.dram.rank0.pwrStateTime::PRE_PDN            0                       # Time in different power states (Tick)
system.mem_ctrl.dram.rank0.pwrStateTime::ACT   2778807748                       # Time in different power states (Tick)
system.mem_ctrl.dram.rank0.pwrStateTime::ACT_PDN            0                       # Time in different power states (Tick)
system.mem_ctrl.dram.rank1.actEnergy         16736160                       # Energy for activate commands per rank (pJ) (Joule)
system.mem_ctrl.dram.rank1.preEnergy          8880300                       # Energy for precharge commands per rank (pJ) (Joule)
system.mem_ctrl.dram.rank1.readEnergy        71257200                       # Energy for read commands per rank (pJ) (Joule)
system.mem_ctrl.dram.rank1.writeEnergy       37745820                       # Energy for write commands per rank (pJ) (Joule)
system.mem_ctrl.dram.rank1.refreshEnergy 384764640.000000                       # Energy for refresh commands per rank (pJ) (Joule)
system.mem_ctrl.dram.rank1.actBackEnergy   1468856940                       # Energy for active background per rank (pJ) (Joule)
system.mem_ctrl.dram.rank1.preBackEnergy    636973920                       # Energy for precharge background per rank (pJ) (Joule)
system.mem_ctrl.dram.rank1.actPowerDownEnergy            0                       # Energy for active power-down per rank (pJ) (Joule)
system.mem_ctrl.dram.rank1.prePowerDownEnergy            0                       # Energy for precharge power-down per rank (pJ) (Joule)
system.mem_ctrl.dram.rank1.selfRefreshEnergy            0                       # Energy for self refresh per rank (pJ) (Joule)
system.mem_ctrl.dram.rank1.totalEnergy     2625214980                       # Total energy per rank (pJ) (Joule)
system.mem_ctrl.dram.rank1.averagePower    537.957968                       # Core power per rank (mW) (Watt)
system.mem_ctrl.dram.rank1.totalIdleTime            0                       # Total Idle time Per DRAM Rank (Tick)
system.mem_ctrl.dram.rank1.pwrStateTime::IDLE   1641510758                       # Time in different power states (Tick)
system.mem_ctrl.dram.rank1.pwrStateTime::REF    162760000                       # Time in different power states (Tick)
system.mem_ctrl.dram.rank1.pwrStateTime::SREF            0                       # Time in different power states (Tick)
system.mem_ctrl.dram.rank1.pwrStateTime::PRE_PDN            0                       # Time in different power states (Tick)
system.mem_ctrl.dram.rank1.pwrStateTime::ACT   3075692242                       # Time in different power states (Tick)
system.mem_ctrl.dram.rank1.pwrStateTime::ACT_PDN            0                       # Time in different power states (Tick)
system.mem_ctrl.power_state.pwrStateResidencyTicks::UNDEFINED   4879963000                       # Cumulative time (in ticks) in various power states (Tick)
system.membus.transDist::ReadResp               10557                       # Transaction distribution (Count)
system.membus.transDist::WritebackDirty         14519                       # Transaction distribution (Count)
system.membus.transDist::CleanEvict               364                       # Transaction distribution (Count)
system.membus.transDist::ReadExReq               9034                       # Transaction distribution (Count)
system.membus.transDist::ReadExResp              9034                       # Transaction distribution (Count)
system.membus.transDist::ReadSharedReq          10557                       # Transaction distribution (Count)
system.membus.pktCount_system.l2cache.mem_side_port::system.mem_ctrl.port        54065                       # Packet count per connected requestor and responder (Count)
system.membus.pktCount_system.l2cache.mem_side_port::total        54065                       # Packet count per connected requestor and responder (Count)
system.membus.pktCount::total                   54065                       # Packet count per connected requestor and responder (Count)
system.membus.pktSize_system.l2cache.mem_side_port::system.mem_ctrl.port      2183040                       # Cumulative packet size per connected requestor and responder (Byte)
system.membus.pktSize_system.l2cache.mem_side_port::total      2183040                       # Cumulative packet size per connected requestor and responder (Byte)
system.membus.pktSize::total                  2183040                       # Cumulative packet size per connected requestor and responder (Byte)
system.membus.snoops                                0                       # Total snoops (Count)
system.membus.snoopTraffic                          0                       # Total snoop traffic (Byte)
system.membus.snoopFanout::samples              19591                       # Request fanout histogram (Count)
system.membus.snoopFanout::mean                     0                       # Request fanout histogram (Count)
system.membus.snoopFanout::stdev                    0                       # Request fanout histogram (Count)
system.membus.snoopFanout::underflows               0      0.00%      0.00% # Request fanout histogram (Count)
system.membus.snoopFanout::0                    19591    100.00%    100.00% # Request fanout histogram (Count)
system.membus.snoopFanout::1                        0      0.00%    100.00% # Request fanout histogram (Count)
system.membus.snoopFanout::overflows                0      0.00%    100.00% # Request fanout histogram (Count)
system.membus.snoopFanout::min_value                0                       # Request fanout histogram (Count)
system.membus.snoopFanout::max_value                0                       # Request fanout histogram (Count)
system.membus.snoopFanout::total                19591                       # Request fanout histogram (Count)
system.membus.power_state.pwrStateResidencyTicks::UNDEFINED   4879963000                       # Cumulative time (in ticks) in various power states (Tick)
system.membus.reqLayer2.occupancy            92555680                       # Layer occupancy (ticks) (Tick)
system.membus.reqLayer2.utilization               0.0                       # Layer utilization (Ratio)
system.membus.respLayer0.occupancy          102806641                       # Layer occupancy (ticks) (Tick)
system.membus.respLayer0.utilization              0.0                       # Layer utilization (Ratio)
system.membus.snoop_filter.totRequests          34474                       # Total number of requests made to the snoop filter. (Count)
system.membus.snoop_filter.hitSingleRequests        14885                       # Number of requests hitting in the snoop filter with a single holder of the requested data. (Count)
system.membus.snoop_filter.hitMultiRequests            0                       # Number of requests hitting in the snoop filter with multiple (>1) holders of the requested data. (Count)
system.membus.snoop_filter.totSnoops                0                       # Total number of snoops made to the snoop filter. (Count)
system.membus.snoop_filter.hitSingleSnoops            0                       # Number of snoops hitting in the snoop filter with a single holder of the requested data. (Count)
system.membus.snoop_filter.hitMultiSnoops            0                       # Number of snoops hitting in the snoop filter with multiple (>1) holders of the requested data. (Count)
system.workload.inst.arm                            0                       # number of arm instructions executed (Count)
system.workload.inst.quiesce                        0                       # number of quiesce instructions executed (Count)

---------- End Simulation Statistics   ----------
