
---------- Begin Simulation Statistics ----------
simSeconds                                   0.007372                       # Number of seconds simulated (Second)
simTicks                                   7372376000                       # Number of ticks simulated (Tick)
finalTick                                  7372376000                       # Number of ticks from beginning of simulation (restored from checkpoints and never reset) (Tick)
simFreq                                  1000000000000                       # The number of ticks per simulated second ((Tick/Second))
hostSeconds                                     24.99                       # Real time elapsed on the host (Second)
hostTickRate                                295027985                       # The number of ticks simulated per host second (ticks/s) ((Tick/Second))
hostMemory                                    8520584                       # Number of bytes of host memory used (Byte)
simInsts                                      5000000                       # Number of instructions simulated (Count)
simOps                                        6001139                       # Number of ops (including micro ops) simulated (Count)
hostInstRate                                   200089                       # Simulator instruction rate (inst/s) ((Count/Second))
hostOpRate                                     240153                       # Simulator op (including micro ops) rate (op/s) ((Count/Second))
system.clk_domain.clock                          1000                       # Clock period in ticks (Tick)
system.clk_domain.voltage_domain.voltage            1                       # Voltage in Volts (Volt)
system.cpu.numCycles                          7372386                       # Number of cpu cycles simulated (Cycle)
system.cpu.numWorkItemsStarted                      0                       # Number of work items this cpu started (Count)
system.cpu.numWorkItemsCompleted                    0                       # Number of work items this cpu completed (Count)
system.cpu.instsAdded                         6097838                       # Number of instructions added to the IQ (excludes non-spec) (Count)
system.cpu.nonSpecInstsAdded                      260                       # Number of non-speculative instructions added to the IQ (Count)
system.cpu.instsIssued                        6080487                       # Number of instructions issued (Count)
system.cpu.squashedInstsIssued                   1666                       # Number of squashed instructions issued (Count)
system.cpu.squashedInstsExamined                96950                       # Number of squashed instructions iterated over during squash; mainly for profiling (Count)
system.cpu.squashedOperandsExamined            242504                       # Number of squashed operands that are examined and possibly removed from graph (Count)
system.cpu.squashedNonSpecRemoved                 212                       # Number of squashed non-spec instructions that were removed (Count)
system.cpu.numIssuedDist::samples             7361085                       # Number of insts issued each cycle (Count)
system.cpu.numIssuedDist::mean               0.826031                       # Number of insts issued each cycle (Count)
system.cpu.numIssuedDist::stdev              0.998839                       # Number of insts issued each cycle (Count)
system.cpu.numIssuedDist::underflows                0      0.00%      0.00% # Number of insts issued each cycle (Count)
system.cpu.numIssuedDist::0                   3793543     51.54%     51.54% # Number of insts issued each cycle (Count)
system.cpu.numIssuedDist::1                   1681466     22.84%     74.38% # Number of insts issued each cycle (Count)
system.cpu.numIssuedDist::2                   1262435     17.15%     91.53% # Number of insts issued each cycle (Count)
system.cpu.numIssuedDist::3                    620466      8.43%     99.96% # Number of insts issued each cycle (Count)
system.cpu.numIssuedDist::4                      3122      0.04%    100.00% # Number of insts issued each cycle (Count)
system.cpu.numIssuedDist::5                        53      0.00%    100.00% # Number of insts issued each cycle (Count)
system.cpu.numIssuedDist::6                         0      0.00%    100.00% # Number of insts issued each cycle (Count)
system.cpu.numIssuedDist::7                         0      0.00%    100.00% # Number of insts issued each cycle (Count)
system.cpu.numIssuedDist::8                         0      0.00%    100.00% # Number of insts issued each cycle (Count)
system.cpu.numIssuedDist::overflows                 0      0.00%    100.00% # Number of insts issued each cycle (Count)
system.cpu.numIssuedDist::min_value                 0                       # Number of insts issued each cycle (Count)
system.cpu.numIssuedDist::max_value                 5                       # Number of insts issued each cycle (Count)
system.cpu.numIssuedDist::total               7361085                       # Number of insts issued each cycle (Count)
system.cpu.statFuBusy::No_OpClass                   0      0.00%      0.00% # attempts to use FU when none available (Count)
system.cpu.statFuBusy::IntAlu                  540977     44.73%     44.73% # attempts to use FU when none available (Count)
system.cpu.statFuBusy::IntMult                      0      0.00%     44.73% # attempts to use FU when none available (Count)
system.cpu.statFuBusy::IntDiv                       0      0.00%     44.73% # attempts to use FU when none available (Count)
system.cpu.statFuBusy::FloatAdd                     0      0.00%     44.73% # attempts to use FU when none available (Count)
system.cpu.statFuBusy::FloatCmp                     0      0.00%     44.73% # attempts to use FU when none available (Count)
system.cpu.statFuBusy::FloatCvt                     0      0.00%     44.73% # attempts to use FU when none available (Count)
system.cpu.statFuBusy::FloatMult                    0      0.00%     44.73% # attempts to use FU when none available (Count)
system.cpu.statFuBusy::FloatMultAcc                 0      0.00%     44.73% # attempts to use FU when none available (Count)
system.cpu.statFuBusy::FloatDiv                     0      0.00%     44.73% # attempts to use FU when none available (Count)
system.cpu.statFuBusy::FloatMisc                    0      0.00%     44.73% # attempts to use FU when none available (Count)
system.cpu.statFuBusy::FloatSqrt                    0      0.00%     44.73% # attempts to use FU when none available (Count)
system.cpu.statFuBusy::SimdAdd                      0      0.00%     44.73% # attempts to use FU when none available (Count)
system.cpu.statFuBusy::SimdAddAcc                   0      0.00%     44.73% # attempts to use FU when none available (Count)
system.cpu.statFuBusy::SimdAlu                     43      0.00%     44.73% # attempts to use FU when none available (Count)
system.cpu.statFuBusy::SimdCmp                      0      0.00%     44.73% # attempts to use FU when none available (Count)
system.cpu.statFuBusy::SimdCvt                      1      0.00%     44.73% # attempts to use FU when none available (Count)
system.cpu.statFuBusy::SimdMisc                     0      0.00%     44.73% # attempts to use FU when none available (Count)
system.cpu.statFuBusy::SimdMult                     0      0.00%     44.73% # attempts to use FU when none available (Count)
system.cpu.statFuBusy::SimdMultAcc                  0      0.00%     44.73% # attempts to use FU when none available (Count)
system.cpu.statFuBusy::SimdShift                    0      0.00%     44.73% # attempts to use FU when none available (Count)
system.cpu.statFuBusy::SimdShiftAcc                 0      0.00%     44.73% # attempts to use FU when none available (Count)
system.cpu.statFuBusy::SimdDiv                      0      0.00%     44.73% # attempts to use FU when none available (Count)
system.cpu.statFuBusy::SimdSqrt                     0      0.00%     44.73% # attempts to use FU when none available (Count)
system.cpu.statFuBusy::SimdFloatAdd                 0      0.00%     44.73% # attempts to use FU when none available (Count)
system.cpu.statFuBusy::SimdFloatAlu                 0      0.00%     44.73% # attempts to use FU when none available (Count)
system.cpu.statFuBusy::SimdFloatCmp                 0      0.00%     44.73% # attempts to use FU when none available (Count)
system.cpu.statFuBusy::SimdFloatCvt                 0      0.00%     44.73% # attempts to use FU when none available (Count)
system.cpu.statFuBusy::SimdFloatDiv                 0      0.00%     44.73% # attempts to use FU when none available (Count)
system.cpu.statFuBusy::SimdFloatMisc                0      0.00%     44.73% # attempts to use FU when none available (Count)
system.cpu.statFuBusy::SimdFloatMult                0      0.00%     44.73% # attempts to use FU when none available (Count)
system.cpu.statFuBusy::SimdFloatMultAcc             0      0.00%     44.73% # attempts to use FU when none available (Count)
system.cpu.statFuBusy::SimdFloatSqrt                0      0.00%     44.73% # attempts to use FU when none available (Count)
system.cpu.statFuBusy::SimdReduceAdd                0      0.00%     44.73% # attempts to use FU when none available (Count)
system.cpu.statFuBusy::SimdReduceAlu                0      0.00%     44.73% # attempts to use FU when none available (Count)
system.cpu.statFuBusy::SimdReduceCmp                0      0.00%     44.73% # attempts to use FU when none available (Count)
system.cpu.statFuBusy::SimdFloatReduceAdd            0      0.00%     44.73% # attempts to use FU when none available (Count)
system.cpu.statFuBusy::SimdFloatReduceCmp            0      0.00%     44.73% # attempts to use FU when none available (Count)
system.cpu.statFuBusy::SimdAes                      0      0.00%     44.73% # attempts to use FU when none available (Count)
system.cpu.statFuBusy::SimdAesMix                   0      0.00%     44.73% # attempts to use FU when none available (Count)
system.cpu.statFuBusy::SimdSha1Hash                 0      0.00%     44.73% # attempts to use FU when none available (Count)
system.cpu.statFuBusy::SimdSha1Hash2                0      0.00%     44.73% # attempts to use FU when none available (Count)
system.cpu.statFuBusy::SimdSha256Hash               0      0.00%     44.73% # attempts to use FU when none available (Count)
system.cpu.statFuBusy::SimdSha256Hash2              0      0.00%     44.73% # attempts to use FU when none available (Count)
system.cpu.statFuBusy::SimdShaSigma2                0      0.00%     44.73% # attempts to use FU when none available (Count)
system.cpu.statFuBusy::SimdShaSigma3                0      0.00%     44.73% # attempts to use FU when none available (Count)
system.cpu.statFuBusy::SimdPredAlu                  0      0.00%     44.73% # attempts to use FU when none available (Count)
system.cpu.statFuBusy::MemRead                 580581     48.00%     92.73% # attempts to use FU when none available (Count)
system.cpu.statFuBusy::MemWrite                  2307      0.19%     92.92% # attempts to use FU when none available (Count)
system.cpu.statFuBusy::FloatMemRead                59      0.00%     92.92% # attempts to use FU when none available (Count)
system.cpu.statFuBusy::FloatMemWrite            85591      7.08%    100.00% # attempts to use FU when none available (Count)
system.cpu.statFuBusy::IprAccess                    0      0.00%    100.00% # attempts to use FU when none available (Count)
system.cpu.statFuBusy::InstPrefetch                 0      0.00%    100.00% # attempts to use FU when none available (Count)
system.cpu.statIssuedInstType_0::No_OpClass          162      0.00%      0.00% # Number of instructions issued per FU type, per thread (Count)
system.cpu.statIssuedInstType_0::IntAlu       3999370     65.77%     65.78% # Number of instructions issued per FU type, per thread (Count)
system.cpu.statIssuedInstType_0::IntMult          633      0.01%     65.79% # Number of instructions issued per FU type, per thread (Count)
system.cpu.statIssuedInstType_0::IntDiv            21      0.00%     65.79% # Number of instructions issued per FU type, per thread (Count)
system.cpu.statIssuedInstType_0::FloatAdd           30      0.00%     65.79% # Number of instructions issued per FU type, per thread (Count)
system.cpu.statIssuedInstType_0::FloatCmp            0      0.00%     65.79% # Number of instructions issued per FU type, per thread (Count)
system.cpu.statIssuedInstType_0::FloatCvt            0      0.00%     65.79% # Number of instructions issued per FU type, per thread (Count)
system.cpu.statIssuedInstType_0::FloatMult            0      0.00%     65.79% # Number of instructions issued per FU type, per thread (Count)
system.cpu.statIssuedInstType_0::FloatMultAcc            0      0.00%     65.79% # Number of instructions issued per FU type, per thread (Count)
system.cpu.statIssuedInstType_0::FloatDiv            0      0.00%     65.79% # Number of instructions issued per FU type, per thread (Count)
system.cpu.statIssuedInstType_0::FloatMisc            0      0.00%     65.79% # Number of instructions issued per FU type, per thread (Count)
system.cpu.statIssuedInstType_0::FloatSqrt            0      0.00%     65.79% # Number of instructions issued per FU type, per thread (Count)
system.cpu.statIssuedInstType_0::SimdAdd            0      0.00%     65.79% # Number of instructions issued per FU type, per thread (Count)
system.cpu.statIssuedInstType_0::SimdAddAcc            0      0.00%     65.79% # Number of instructions issued per FU type, per thread (Count)
system.cpu.statIssuedInstType_0::SimdAlu          124      0.00%     65.79% # Number of instructions issued per FU type, per thread (Count)
system.cpu.statIssuedInstType_0::SimdCmp            6      0.00%     65.79% # Number of instructions issued per FU type, per thread (Count)
system.cpu.statIssuedInstType_0::SimdCvt           70      0.00%     65.79% # Number of instructions issued per FU type, per thread (Count)
system.cpu.statIssuedInstType_0::SimdMisc          198      0.00%     65.79% # Number of instructions issued per FU type, per thread (Count)
system.cpu.statIssuedInstType_0::SimdMult            0      0.00%     65.79% # Number of instructions issued per FU type, per thread (Count)
system.cpu.statIssuedInstType_0::SimdMultAcc            0      0.00%     65.79% # Number of instructions issued per FU type, per thread (Count)
system.cpu.statIssuedInstType_0::SimdShift            0      0.00%     65.79% # Number of instructions issued per FU type, per thread (Count)
system.cpu.statIssuedInstType_0::SimdShiftAcc            0      0.00%     65.79% # Number of instructions issued per FU type, per thread (Count)
system.cpu.statIssuedInstType_0::SimdDiv            0      0.00%     65.79% # Number of instructions issued per FU type, per thread (Count)
system.cpu.statIssuedInstType_0::SimdSqrt            0      0.00%     65.79% # Number of instructions issued per FU type, per thread (Count)
system.cpu.statIssuedInstType_0::SimdFloatAdd            0      0.00%     65.79% # Number of instructions issued per FU type, per thread (Count)
system.cpu.statIssuedInstType_0::SimdFloatAlu            0      0.00%     65.79% # Number of instructions issued per FU type, per thread (Count)
system.cpu.statIssuedInstType_0::SimdFloatCmp            0      0.00%     65.79% # Number of instructions issued per FU type, per thread (Count)
system.cpu.statIssuedInstType_0::SimdFloatCvt            0      0.00%     65.79% # Number of instructions issued per FU type, per thread (Count)
system.cpu.statIssuedInstType_0::SimdFloatDiv            0      0.00%     65.79% # Number of instructions issued per FU type, per thread (Count)
system.cpu.statIssuedInstType_0::SimdFloatMisc            0      0.00%     65.79% # Number of instructions issued per FU type, per thread (Count)
system.cpu.statIssuedInstType_0::SimdFloatMult            0      0.00%     65.79% # Number of instructions issued per FU type, per thread (Count)
system.cpu.statIssuedInstType_0::SimdFloatMultAcc            0      0.00%     65.79% # Number of instructions issued per FU type, per thread (Count)
system.cpu.statIssuedInstType_0::SimdFloatSqrt            0      0.00%     65.79% # Number of instructions issued per FU type, per thread (Count)
system.cpu.statIssuedInstType_0::SimdReduceAdd            0      0.00%     65.79% # Number of instructions issued per FU type, per thread (Count)
system.cpu.statIssuedInstType_0::SimdReduceAlu            0      0.00%     65.79% # Number of instructions issued per FU type, per thread (Count)
system.cpu.statIssuedInstType_0::SimdReduceCmp            0      0.00%     65.79% # Number of instructions issued per FU type, per thread (Count)
system.cpu.statIssuedInstType_0::SimdFloatReduceAdd            0      0.00%     65.79% # Number of instructions issued per FU type, per thread (Count)
system.cpu.statIssuedInstType_0::SimdFloatReduceCmp            0      0.00%     65.79% # Number of instructions issued per FU type, per thread (Count)
system.cpu.statIssuedInstType_0::SimdAes            0      0.00%     65.79% # Number of instructions issued per FU type, per thread (Count)
system.cpu.statIssuedInstType_0::SimdAesMix            0      0.00%     65.79% # Number of instructions issued per FU type, per thread (Count)
system.cpu.statIssuedInstType_0::SimdSha1Hash            0      0.00%     65.79% # Number of instructions issued per FU type, per thread (Count)
system.cpu.statIssuedInstType_0::SimdSha1Hash2            0      0.00%     65.79% # Number of instructions issued per FU type, per thread (Count)
system.cpu.statIssuedInstType_0::SimdSha256Hash            0      0.00%     65.79% # Number of instructions issued per FU type, per thread (Count)
system.cpu.statIssuedInstType_0::SimdSha256Hash2            0      0.00%     65.79% # Number of instructions issued per FU type, per thread (Count)
system.cpu.statIssuedInstType_0::SimdShaSigma2            0      0.00%     65.79% # Number of instructions issued per FU type, per thread (Count)
system.cpu.statIssuedInstType_0::SimdShaSigma3            0      0.00%     65.79% # Number of instructions issued per FU type, per thread (Count)
system.cpu.statIssuedInstType_0::SimdPredAlu            0      0.00%     65.79% # Number of instructions issued per FU type, per thread (Count)
system.cpu.statIssuedInstType_0::MemRead      1318157     21.68%     87.47% # Number of instructions issued per FU type, per thread (Count)
system.cpu.statIssuedInstType_0::MemWrite       182275      3.00%     90.47% # Number of instructions issued per FU type, per thread (Count)
system.cpu.statIssuedInstType_0::FloatMemRead           80      0.00%     90.47% # Number of instructions issued per FU type, per thread (Count)
system.cpu.statIssuedInstType_0::FloatMemWrite       579361      9.53%    100.00% # Number of instructions issued per FU type, per thread (Count)
system.cpu.statIssuedInstType_0::IprAccess            0      0.00%    100.00% # Number of instructions issued per FU type, per thread (Count)
system.cpu.statIssuedInstType_0::InstPrefetch            0      0.00%    100.00% # Number of instructions issued per FU type, per thread (Count)
system.cpu.statIssuedInstType_0::total        6080487                       # Number of instructions issued per FU type, per thread (Count)
system.cpu.issueRate                         0.824765                       # Inst issue rate ((Count/Cycle))
system.cpu.fuBusy                             1209559                       # FU busy when requested (Count)
system.cpu.fuBusyRate                        0.198925                       # FU busy rate (busy events/executed inst) ((Count/Count))
system.cpu.intInstQueueReads                 19487775                       # Number of integer instruction queue reads (Count)
system.cpu.intInstQueueWrites                 5570399                       # Number of integer instruction queue writes (Count)
system.cpu.intInstQueueWakeupAccesses         5498501                       # Number of integer instruction queue wakeup accesses (Count)
system.cpu.fpInstQueueReads                   1245505                       # Number of floating instruction queue reads (Count)
system.cpu.fpInstQueueWrites                   624750                       # Number of floating instruction queue writes (Count)
system.cpu.fpInstQueueWakeupAccesses           539997                       # Number of floating instruction queue wakeup accesses (Count)
system.cpu.vecInstQueueReads                        0                       # Number of vector instruction queue reads (Count)
system.cpu.vecInstQueueWrites                       0                       # Number of vector instruction queue writes (Count)
system.cpu.vecInstQueueWakeupAccesses               0                       # Number of vector instruction queue wakeup accesses (Count)
system.cpu.intAluAccesses                     6624295                       # Number of integer alu accesses (Count)
system.cpu.fpAluAccesses                       665589                       # Number of floating point alu accesses (Count)
system.cpu.vecAluAccesses                           0                       # Number of vector alu accesses (Count)
system.cpu.numInsts                           6078796                       # Number of executed instructions (Count)
system.cpu.numLoadInsts                       1317561                       # Number of load instructions executed (Count)
system.cpu.numSquashedInsts                      1687                       # Number of squashed instructions skipped in execute (Count)
system.cpu.numSwp                                   0                       # Number of swp insts executed (Count)
system.cpu.numNop                                   0                       # Number of nop insts executed (Count)
system.cpu.numRefs                            2078763                       # Number of memory reference insts executed (Count)
system.cpu.numBranches                         115206                       # Number of branches executed (Count)
system.cpu.numStoreInsts                       761202                       # Number of stores executed (Count)
system.cpu.numRate                           0.824536                       # Inst execution rate ((Count/Cycle))
system.cpu.timesIdled                             244                       # Number of times that the entire CPU went into an idle state and unscheduled itself (Count)
system.cpu.idleCycles                           11301                       # Total number of cycles that the CPU has spent unscheduled due to idling (Cycle)
system.cpu.committedInsts                     5000000                       # Number of Instructions Simulated (Count)
system.cpu.committedOps                       6001139                       # Number of Ops (including micro ops) Simulated (Count)
system.cpu.cpi                               1.474477                       # CPI: Cycles Per Instruction ((Cycle/Count))
system.cpu.totalCpi                          1.474477                       # CPI: Total CPI of All Threads ((Cycle/Count))
system.cpu.ipc                               0.678206                       # IPC: Instructions Per Cycle ((Count/Cycle))
system.cpu.totalIpc                          0.678206                       # IPC: Total IPC of All Threads ((Count/Cycle))
system.cpu.intRegfileReads                    9730202                       # Number of integer regfile reads (Count)
system.cpu.intRegfileWrites                   4984951                       # Number of integer regfile writes (Count)
system.cpu.fpRegfileReads                      580187                       # Number of floating regfile reads (Count)
system.cpu.fpRegfileWrites                        431                       # Number of floating regfile writes (Count)
system.cpu.ccRegfileReads                     2345393                       # number of cc regfile reads (Count)
system.cpu.ccRegfileWrites                    3609592                       # number of cc regfile writes (Count)
system.cpu.miscRegfileReads                   2318992                       # number of misc regfile reads (Count)
system.cpu.MemDepUnit__0.insertedLoads        1320606                       # Number of loads inserted to the mem dependence unit. (Count)
system.cpu.MemDepUnit__0.insertedStores        765489                       # Number of stores inserted to the mem dependence unit. (Count)
system.cpu.MemDepUnit__0.conflictingLoads       116436                       # Number of conflicting loads. (Count)
system.cpu.MemDepUnit__0.conflictingStores        39258                       # Number of conflicting stores. (Count)
system.cpu.MemDepUnit__1.insertedLoads              0                       # Number of loads inserted to the mem dependence unit. (Count)
system.cpu.MemDepUnit__1.insertedStores             0                       # Number of stores inserted to the mem dependence unit. (Count)
system.cpu.MemDepUnit__1.conflictingLoads            0                       # Number of conflicting loads. (Count)
system.cpu.MemDepUnit__1.conflictingStores            0                       # Number of conflicting stores. (Count)
system.cpu.MemDepUnit__2.insertedLoads              0                       # Number of loads inserted to the mem dependence unit. (Count)
system.cpu.MemDepUnit__2.insertedStores             0                       # Number of stores inserted to the mem dependence unit. (Count)
system.cpu.MemDepUnit__2.conflictingLoads            0                       # Number of conflicting loads. (Count)
system.cpu.MemDepUnit__2.conflictingStores            0                       # Number of conflicting stores. (Count)
system.cpu.MemDepUnit__3.insertedLoads              0                       # Number of loads inserted to the mem dependence unit. (Count)
system.cpu.MemDepUnit__3.insertedStores             0                       # Number of stores inserted to the mem dependence unit. (Count)
system.cpu.MemDepUnit__3.conflictingLoads            0                       # Number of conflicting loads. (Count)
system.cpu.MemDepUnit__3.conflictingStores            0                       # Number of conflicting stores. (Count)
system.cpu.branchPred.lookups                  121828                       # Number of BP lookups (Count)
system.cpu.branchPred.condPredicted            114501                       # Number of conditional branches predicted (Count)
system.cpu.branchPred.condIncorrect              1105                       # Number of conditional branches incorrect (Count)
system.cpu.branchPred.BTBLookups               115701                       # Number of BTB lookups (Count)
system.cpu.branchPred.BTBHits                  114753                       # Number of BTB hits (Count)
system.cpu.branchPred.BTBHitRatio            0.991806                       # BTB Hit Ratio (Ratio)
system.cpu.branchPred.RASUsed                    2405                       # Number of times the RAS was used to get a target. (Count)
system.cpu.branchPred.RASIncorrect                  1                       # Number of incorrect RAS predictions. (Count)
system.cpu.branchPred.indirectLookups             115                       # Number of indirect predictor lookups. (Count)
system.cpu.branchPred.indirectHits                  9                       # Number of indirect target hits. (Count)
system.cpu.branchPred.indirectMisses              106                       # Number of indirect misses. (Count)
system.cpu.branchPred.indirectMispredicted           48                       # Number of mispredicted indirect branches. (Count)
system.cpu.commit.commitSquashedInsts           96820                       # The number of squashed insts skipped by commit (Count)
system.cpu.commit.commitNonSpecStalls              48                       # The number of times commit has been forced to stall to communicate backwards (Count)
system.cpu.commit.branchMispredicts               850                       # The number of times a branch was mispredicted (Count)
system.cpu.commit.numCommittedDist::samples      7348349                       # Number of insts commited each cycle (Count)
system.cpu.commit.numCommittedDist::mean     0.816665                       # Number of insts commited each cycle (Count)
system.cpu.commit.numCommittedDist::stdev     1.944490                       # Number of insts commited each cycle (Count)
system.cpu.commit.numCommittedDist::underflows            0      0.00%      0.00% # Number of insts commited each cycle (Count)
system.cpu.commit.numCommittedDist::0         5178264     70.47%     70.47% # Number of insts commited each cycle (Count)
system.cpu.commit.numCommittedDist::1         1391362     18.93%     89.40% # Number of insts commited each cycle (Count)
system.cpu.commit.numCommittedDist::2           36859      0.50%     89.90% # Number of insts commited each cycle (Count)
system.cpu.commit.numCommittedDist::3          149924      2.04%     91.94% # Number of insts commited each cycle (Count)
system.cpu.commit.numCommittedDist::4          118925      1.62%     93.56% # Number of insts commited each cycle (Count)
system.cpu.commit.numCommittedDist::5           27094      0.37%     93.93% # Number of insts commited each cycle (Count)
system.cpu.commit.numCommittedDist::6           30941      0.42%     94.35% # Number of insts commited each cycle (Count)
system.cpu.commit.numCommittedDist::7           30369      0.41%     94.77% # Number of insts commited each cycle (Count)
system.cpu.commit.numCommittedDist::8          384611      5.23%    100.00% # Number of insts commited each cycle (Count)
system.cpu.commit.numCommittedDist::overflows            0      0.00%    100.00% # Number of insts commited each cycle (Count)
system.cpu.commit.numCommittedDist::min_value            0                       # Number of insts commited each cycle (Count)
system.cpu.commit.numCommittedDist::max_value            8                       # Number of insts commited each cycle (Count)
system.cpu.commit.numCommittedDist::total      7348349                       # Number of insts commited each cycle (Count)
system.cpu.commit.instsCommitted              5000000                       # Number of instructions committed (Count)
system.cpu.commit.opsCommitted                6001139                       # Number of ops (including micro ops) committed (Count)
system.cpu.commit.memRefs                     2036421                       # Number of memory references committed (Count)
system.cpu.commit.loads                       1315738                       # Number of loads committed (Count)
system.cpu.commit.amos                              0                       # Number of atomic instructions committed (Count)
system.cpu.commit.membars                          32                       # Number of memory barriers committed (Count)
system.cpu.commit.branches                     110279                       # Number of branches committed (Count)
system.cpu.commit.vectorInstructions                0                       # Number of committed Vector instructions. (Count)
system.cpu.commit.floating                     539909                       # Number of committed floating point instructions. (Count)
system.cpu.commit.integer                     6000623                       # Number of committed integer instructions. (Count)
system.cpu.commit.functionCalls                  2144                       # Number of function calls committed. (Count)
system.cpu.commit.committedInstType_0::No_OpClass           31      0.00%      0.00% # Class of committed instruction (Count)
system.cpu.commit.committedInstType_0::IntAlu      3963690     66.05%     66.05% # Class of committed instruction (Count)
system.cpu.commit.committedInstType_0::IntMult          632      0.01%     66.06% # Class of committed instruction (Count)
system.cpu.commit.committedInstType_0::IntDiv           21      0.00%     66.06% # Class of committed instruction (Count)
system.cpu.commit.committedInstType_0::FloatAdd           15      0.00%     66.06% # Class of committed instruction (Count)
system.cpu.commit.committedInstType_0::FloatCmp            0      0.00%     66.06% # Class of committed instruction (Count)
system.cpu.commit.committedInstType_0::FloatCvt            0      0.00%     66.06% # Class of committed instruction (Count)
system.cpu.commit.committedInstType_0::FloatMult            0      0.00%     66.06% # Class of committed instruction (Count)
system.cpu.commit.committedInstType_0::FloatMultAcc            0      0.00%     66.06% # Class of committed instruction (Count)
system.cpu.commit.committedInstType_0::FloatDiv            0      0.00%     66.06% # Class of committed instruction (Count)
system.cpu.commit.committedInstType_0::FloatMisc            0      0.00%     66.06% # Class of committed instruction (Count)
system.cpu.commit.committedInstType_0::FloatSqrt            0      0.00%     66.06% # Class of committed instruction (Count)
system.cpu.commit.committedInstType_0::SimdAdd            0      0.00%     66.06% # Class of committed instruction (Count)
system.cpu.commit.committedInstType_0::SimdAddAcc            0      0.00%     66.06% # Class of committed instruction (Count)
system.cpu.commit.committedInstType_0::SimdAlu           82      0.00%     66.06% # Class of committed instruction (Count)
system.cpu.commit.committedInstType_0::SimdCmp            6      0.00%     66.06% # Class of committed instruction (Count)
system.cpu.commit.committedInstType_0::SimdCvt           68      0.00%     66.06% # Class of committed instruction (Count)
system.cpu.commit.committedInstType_0::SimdMisc          173      0.00%     66.07% # Class of committed instruction (Count)
system.cpu.commit.committedInstType_0::SimdMult            0      0.00%     66.07% # Class of committed instruction (Count)
system.cpu.commit.committedInstType_0::SimdMultAcc            0      0.00%     66.07% # Class of committed instruction (Count)
system.cpu.commit.committedInstType_0::SimdShift            0      0.00%     66.07% # Class of committed instruction (Count)
system.cpu.commit.committedInstType_0::SimdShiftAcc            0      0.00%     66.07% # Class of committed instruction (Count)
system.cpu.commit.committedInstType_0::SimdDiv            0      0.00%     66.07% # Class of committed instruction (Count)
system.cpu.commit.committedInstType_0::SimdSqrt            0      0.00%     66.07% # Class of committed instruction (Count)
system.cpu.commit.committedInstType_0::SimdFloatAdd            0      0.00%     66.07% # Class of committed instruction (Count)
system.cpu.commit.committedInstType_0::SimdFloatAlu            0      0.00%     66.07% # Class of committed instruction (Count)
system.cpu.commit.committedInstType_0::SimdFloatCmp            0      0.00%     66.07% # Class of committed instruction (Count)
system.cpu.commit.committedInstType_0::SimdFloatCvt            0      0.00%     66.07% # Class of committed instruction (Count)
system.cpu.commit.committedInstType_0::SimdFloatDiv            0      0.00%     66.07% # Class of committed instruction (Count)
system.cpu.commit.committedInstType_0::SimdFloatMisc            0      0.00%     66.07% # Class of committed instruction (Count)
system.cpu.commit.committedInstType_0::SimdFloatMult            0      0.00%     66.07% # Class of committed instruction (Count)
system.cpu.commit.committedInstType_0::SimdFloatMultAcc            0      0.00%     66.07% # Class of committed instruction (Count)
system.cpu.commit.committedInstType_0::SimdFloatSqrt            0      0.00%     66.07% # Class of committed instruction (Count)
system.cpu.commit.committedInstType_0::SimdReduceAdd            0      0.00%     66.07% # Class of committed instruction (Count)
system.cpu.commit.committedInstType_0::SimdReduceAlu            0      0.00%     66.07% # Class of committed instruction (Count)
system.cpu.commit.committedInstType_0::SimdReduceCmp            0      0.00%     66.07% # Class of committed instruction (Count)
system.cpu.commit.committedInstType_0::SimdFloatReduceAdd            0      0.00%     66.07% # Class of committed instruction (Count)
system.cpu.commit.committedInstType_0::SimdFloatReduceCmp            0      0.00%     66.07% # Class of committed instruction (Count)
system.cpu.commit.committedInstType_0::SimdAes            0      0.00%     66.07% # Class of committed instruction (Count)
system.cpu.commit.committedInstType_0::SimdAesMix            0      0.00%     66.07% # Class of committed instruction (Count)
system.cpu.commit.committedInstType_0::SimdSha1Hash            0      0.00%     66.07% # Class of committed instruction (Count)
system.cpu.commit.committedInstType_0::SimdSha1Hash2            0      0.00%     66.07% # Class of committed instruction (Count)
system.cpu.commit.committedInstType_0::SimdSha256Hash            0      0.00%     66.07% # Class of committed instruction (Count)
system.cpu.commit.committedInstType_0::SimdSha256Hash2            0      0.00%     66.07% # Class of committed instruction (Count)
system.cpu.commit.committedInstType_0::SimdShaSigma2            0      0.00%     66.07% # Class of committed instruction (Count)
system.cpu.commit.committedInstType_0::SimdShaSigma3            0      0.00%     66.07% # Class of committed instruction (Count)
system.cpu.commit.committedInstType_0::SimdPredAlu            0      0.00%     66.07% # Class of committed instruction (Count)
system.cpu.commit.committedInstType_0::MemRead      1315676     21.92%     87.99% # Class of committed instruction (Count)
system.cpu.commit.committedInstType_0::MemWrite       181205      3.02%     91.01% # Class of committed instruction (Count)
system.cpu.commit.committedInstType_0::FloatMemRead           62      0.00%     91.01% # Class of committed instruction (Count)
system.cpu.commit.committedInstType_0::FloatMemWrite       539478      8.99%    100.00% # Class of committed instruction (Count)
system.cpu.commit.committedInstType_0::IprAccess            0      0.00%    100.00% # Class of committed instruction (Count)
system.cpu.commit.committedInstType_0::InstPrefetch            0      0.00%    100.00% # Class of committed instruction (Count)
system.cpu.commit.committedInstType_0::total      6001139                       # Class of committed instruction (Count)
system.cpu.commit.commitEligibleSamples        384611                       # number cycles where commit BW limit reached (Cycle)
system.cpu.dcache.demandHits::cpu.data        1853460                       # number of demand (read+write) hits (Count)
system.cpu.dcache.demandHits::total           1853460                       # number of demand (read+write) hits (Count)
system.cpu.dcache.overallHits::cpu.data       1853460                       # number of overall hits (Count)
system.cpu.dcache.overallHits::total          1853460                       # number of overall hits (Count)
system.cpu.dcache.demandMisses::cpu.data        35868                       # number of demand (read+write) misses (Count)
system.cpu.dcache.demandMisses::total           35868                       # number of demand (read+write) misses (Count)
system.cpu.dcache.overallMisses::cpu.data        35868                       # number of overall misses (Count)
system.cpu.dcache.overallMisses::total          35868                       # number of overall misses (Count)
system.cpu.dcache.demandMissLatency::cpu.data   3215344000                       # number of demand (read+write) miss ticks (Tick)
system.cpu.dcache.demandMissLatency::total   3215344000                       # number of demand (read+write) miss ticks (Tick)
system.cpu.dcache.overallMissLatency::cpu.data   3215344000                       # number of overall miss ticks (Tick)
system.cpu.dcache.overallMissLatency::total   3215344000                       # number of overall miss ticks (Tick)
system.cpu.dcache.demandAccesses::cpu.data      1889328                       # number of demand (read+write) accesses (Count)
system.cpu.dcache.demandAccesses::total       1889328                       # number of demand (read+write) accesses (Count)
system.cpu.dcache.overallAccesses::cpu.data      1889328                       # number of overall (read+write) accesses (Count)
system.cpu.dcache.overallAccesses::total      1889328                       # number of overall (read+write) accesses (Count)
system.cpu.dcache.demandMissRate::cpu.data     0.018985                       # miss rate for demand accesses (Ratio)
system.cpu.dcache.demandMissRate::total      0.018985                       # miss rate for demand accesses (Ratio)
system.cpu.dcache.overallMissRate::cpu.data     0.018985                       # miss rate for overall accesses (Ratio)
system.cpu.dcache.overallMissRate::total     0.018985                       # miss rate for overall accesses (Ratio)
system.cpu.dcache.demandAvgMissLatency::cpu.data 89643.805063                       # average overall miss latency in ticks ((Tick/Count))
system.cpu.dcache.demandAvgMissLatency::total 89643.805063                       # average overall miss latency in ticks ((Tick/Count))
system.cpu.dcache.overallAvgMissLatency::cpu.data 89643.805063                       # average overall miss latency ((Tick/Count))
system.cpu.dcache.overallAvgMissLatency::total 89643.805063                       # average overall miss latency ((Tick/Count))
system.cpu.dcache.blockedCycles::no_mshrs          156                       # number of cycles access was blocked (Cycle)
system.cpu.dcache.blockedCycles::no_targets            0                       # number of cycles access was blocked (Cycle)
system.cpu.dcache.blockedCauses::no_mshrs           10                       # number of times access was blocked (Count)
system.cpu.dcache.blockedCauses::no_targets            0                       # number of times access was blocked (Count)
system.cpu.dcache.avgBlocked::no_mshrs      15.600000                       # average number of cycles each access was blocked ((Cycle/Count))
system.cpu.dcache.avgBlocked::no_targets          nan                       # average number of cycles each access was blocked ((Cycle/Count))
system.cpu.dcache.writebacks::writebacks        69273                       # number of writebacks (Count)
system.cpu.dcache.writebacks::total             69273                       # number of writebacks (Count)
system.cpu.dcache.demandMshrHits::cpu.data          124                       # number of demand (read+write) MSHR hits (Count)
system.cpu.dcache.demandMshrHits::total           124                       # number of demand (read+write) MSHR hits (Count)
system.cpu.dcache.overallMshrHits::cpu.data          124                       # number of overall MSHR hits (Count)
system.cpu.dcache.overallMshrHits::total          124                       # number of overall MSHR hits (Count)
system.cpu.dcache.demandMshrMisses::cpu.data        35744                       # number of demand (read+write) MSHR misses (Count)
system.cpu.dcache.demandMshrMisses::total        35744                       # number of demand (read+write) MSHR misses (Count)
system.cpu.dcache.overallMshrMisses::cpu.data        35744                       # number of overall MSHR misses (Count)
system.cpu.dcache.overallMshrMisses::cpu.dcache.prefetcher        34667                       # number of overall MSHR misses (Count)
system.cpu.dcache.overallMshrMisses::total        70411                       # number of overall MSHR misses (Count)
system.cpu.dcache.demandMshrMissLatency::cpu.data   3171260000                       # number of demand (read+write) MSHR miss ticks (Tick)
system.cpu.dcache.demandMshrMissLatency::total   3171260000                       # number of demand (read+write) MSHR miss ticks (Tick)
system.cpu.dcache.overallMshrMissLatency::cpu.data   3171260000                       # number of overall MSHR miss ticks (Tick)
system.cpu.dcache.overallMshrMissLatency::cpu.dcache.prefetcher   2605014957                       # number of overall MSHR miss ticks (Tick)
system.cpu.dcache.overallMshrMissLatency::total   5776274957                       # number of overall MSHR miss ticks (Tick)
system.cpu.dcache.demandMshrMissRate::cpu.data     0.018919                       # mshr miss ratio for demand accesses (Ratio)
system.cpu.dcache.demandMshrMissRate::total     0.018919                       # mshr miss ratio for demand accesses (Ratio)
system.cpu.dcache.overallMshrMissRate::cpu.data     0.018919                       # mshr miss ratio for overall accesses (Ratio)
system.cpu.dcache.overallMshrMissRate::cpu.dcache.prefetcher          inf                       # mshr miss ratio for overall accesses (Ratio)
system.cpu.dcache.overallMshrMissRate::total     0.037268                       # mshr miss ratio for overall accesses (Ratio)
system.cpu.dcache.demandAvgMshrMissLatency::cpu.data 88721.463742                       # average overall mshr miss latency ((Tick/Count))
system.cpu.dcache.demandAvgMshrMissLatency::total 88721.463742                       # average overall mshr miss latency ((Tick/Count))
system.cpu.dcache.overallAvgMshrMissLatency::cpu.data 88721.463742                       # average overall mshr miss latency ((Tick/Count))
system.cpu.dcache.overallAvgMshrMissLatency::cpu.dcache.prefetcher 75143.939683                       # average overall mshr miss latency ((Tick/Count))
system.cpu.dcache.overallAvgMshrMissLatency::total 82036.541975                       # average overall mshr miss latency ((Tick/Count))
system.cpu.dcache.replacements                  69386                       # number of replacements (Count)
system.cpu.dcache.HardPFReq.mshrMisses::cpu.dcache.prefetcher        34667                       # number of HardPFReq MSHR misses (Count)
system.cpu.dcache.HardPFReq.mshrMisses::total        34667                       # number of HardPFReq MSHR misses (Count)
system.cpu.dcache.HardPFReq.mshrMissLatency::cpu.dcache.prefetcher   2605014957                       # number of HardPFReq MSHR miss ticks (Tick)
system.cpu.dcache.HardPFReq.mshrMissLatency::total   2605014957                       # number of HardPFReq MSHR miss ticks (Tick)
system.cpu.dcache.HardPFReq.mshrMissRate::cpu.dcache.prefetcher          inf                       # mshr miss rate for HardPFReq accesses (Ratio)
system.cpu.dcache.HardPFReq.mshrMissRate::total          inf                       # mshr miss rate for HardPFReq accesses (Ratio)
system.cpu.dcache.HardPFReq.avgMshrMissLatency::cpu.dcache.prefetcher 75143.939683                       # average HardPFReq mshr miss latency ((Tick/Count))
system.cpu.dcache.HardPFReq.avgMshrMissLatency::total 75143.939683                       # average HardPFReq mshr miss latency ((Tick/Count))
system.cpu.dcache.LockedRMWReadReq.hits::cpu.data           16                       # number of LockedRMWReadReq hits (Count)
system.cpu.dcache.LockedRMWReadReq.hits::total           16                       # number of LockedRMWReadReq hits (Count)
system.cpu.dcache.LockedRMWReadReq.accesses::cpu.data           16                       # number of LockedRMWReadReq accesses(hits+misses) (Count)
system.cpu.dcache.LockedRMWReadReq.accesses::total           16                       # number of LockedRMWReadReq accesses(hits+misses) (Count)
system.cpu.dcache.LockedRMWReadReq.mshrMissLatency::cpu.data       210000                       # number of LockedRMWReadReq MSHR miss ticks (Tick)
system.cpu.dcache.LockedRMWReadReq.mshrMissLatency::total       210000                       # number of LockedRMWReadReq MSHR miss ticks (Tick)
system.cpu.dcache.LockedRMWReadReq.avgMshrMissLatency::cpu.data          inf                       # average LockedRMWReadReq mshr miss latency ((Tick/Count))
system.cpu.dcache.LockedRMWReadReq.avgMshrMissLatency::total          inf                       # average LockedRMWReadReq mshr miss latency ((Tick/Count))
system.cpu.dcache.LockedRMWWriteReq.hits::cpu.data           16                       # number of LockedRMWWriteReq hits (Count)
system.cpu.dcache.LockedRMWWriteReq.hits::total           16                       # number of LockedRMWWriteReq hits (Count)
system.cpu.dcache.LockedRMWWriteReq.accesses::cpu.data           16                       # number of LockedRMWWriteReq accesses(hits+misses) (Count)
system.cpu.dcache.LockedRMWWriteReq.accesses::total           16                       # number of LockedRMWWriteReq accesses(hits+misses) (Count)
system.cpu.dcache.ReadReq.hits::cpu.data      1168493                       # number of ReadReq hits (Count)
system.cpu.dcache.ReadReq.hits::total         1168493                       # number of ReadReq hits (Count)
system.cpu.dcache.ReadReq.misses::cpu.data          225                       # number of ReadReq misses (Count)
system.cpu.dcache.ReadReq.misses::total           225                       # number of ReadReq misses (Count)
system.cpu.dcache.ReadReq.missLatency::cpu.data     17483000                       # number of ReadReq miss ticks (Tick)
system.cpu.dcache.ReadReq.missLatency::total     17483000                       # number of ReadReq miss ticks (Tick)
system.cpu.dcache.ReadReq.accesses::cpu.data      1168718                       # number of ReadReq accesses(hits+misses) (Count)
system.cpu.dcache.ReadReq.accesses::total      1168718                       # number of ReadReq accesses(hits+misses) (Count)
system.cpu.dcache.ReadReq.missRate::cpu.data     0.000193                       # miss rate for ReadReq accesses (Ratio)
system.cpu.dcache.ReadReq.missRate::total     0.000193                       # miss rate for ReadReq accesses (Ratio)
system.cpu.dcache.ReadReq.avgMissLatency::cpu.data 77702.222222                       # average ReadReq miss latency ((Tick/Count))
system.cpu.dcache.ReadReq.avgMissLatency::total 77702.222222                       # average ReadReq miss latency ((Tick/Count))
system.cpu.dcache.ReadReq.mshrHits::cpu.data          108                       # number of ReadReq MSHR hits (Count)
system.cpu.dcache.ReadReq.mshrHits::total          108                       # number of ReadReq MSHR hits (Count)
system.cpu.dcache.ReadReq.mshrMisses::cpu.data          117                       # number of ReadReq MSHR misses (Count)
system.cpu.dcache.ReadReq.mshrMisses::total          117                       # number of ReadReq MSHR misses (Count)
system.cpu.dcache.ReadReq.mshrMissLatency::cpu.data      9737000                       # number of ReadReq MSHR miss ticks (Tick)
system.cpu.dcache.ReadReq.mshrMissLatency::total      9737000                       # number of ReadReq MSHR miss ticks (Tick)
system.cpu.dcache.ReadReq.mshrMissRate::cpu.data     0.000100                       # mshr miss rate for ReadReq accesses (Ratio)
system.cpu.dcache.ReadReq.mshrMissRate::total     0.000100                       # mshr miss rate for ReadReq accesses (Ratio)
system.cpu.dcache.ReadReq.avgMshrMissLatency::cpu.data 83222.222222                       # average ReadReq mshr miss latency ((Tick/Count))
system.cpu.dcache.ReadReq.avgMshrMissLatency::total 83222.222222                       # average ReadReq mshr miss latency ((Tick/Count))
system.cpu.dcache.WriteReq.hits::cpu.data       684967                       # number of WriteReq hits (Count)
system.cpu.dcache.WriteReq.hits::total         684967                       # number of WriteReq hits (Count)
system.cpu.dcache.WriteReq.misses::cpu.data        35643                       # number of WriteReq misses (Count)
system.cpu.dcache.WriteReq.misses::total        35643                       # number of WriteReq misses (Count)
system.cpu.dcache.WriteReq.missLatency::cpu.data   3197861000                       # number of WriteReq miss ticks (Tick)
system.cpu.dcache.WriteReq.missLatency::total   3197861000                       # number of WriteReq miss ticks (Tick)
system.cpu.dcache.WriteReq.accesses::cpu.data       720610                       # number of WriteReq accesses(hits+misses) (Count)
system.cpu.dcache.WriteReq.accesses::total       720610                       # number of WriteReq accesses(hits+misses) (Count)
system.cpu.dcache.WriteReq.missRate::cpu.data     0.049462                       # miss rate for WriteReq accesses (Ratio)
system.cpu.dcache.WriteReq.missRate::total     0.049462                       # miss rate for WriteReq accesses (Ratio)
system.cpu.dcache.WriteReq.avgMissLatency::cpu.data 89719.187498                       # average WriteReq miss latency ((Tick/Count))
system.cpu.dcache.WriteReq.avgMissLatency::total 89719.187498                       # average WriteReq miss latency ((Tick/Count))
system.cpu.dcache.WriteReq.mshrHits::cpu.data           16                       # number of WriteReq MSHR hits (Count)
system.cpu.dcache.WriteReq.mshrHits::total           16                       # number of WriteReq MSHR hits (Count)
system.cpu.dcache.WriteReq.mshrMisses::cpu.data        35627                       # number of WriteReq MSHR misses (Count)
system.cpu.dcache.WriteReq.mshrMisses::total        35627                       # number of WriteReq MSHR misses (Count)
system.cpu.dcache.WriteReq.mshrMissLatency::cpu.data   3161523000                       # number of WriteReq MSHR miss ticks (Tick)
system.cpu.dcache.WriteReq.mshrMissLatency::total   3161523000                       # number of WriteReq MSHR miss ticks (Tick)
system.cpu.dcache.WriteReq.mshrMissRate::cpu.data     0.049440                       # mshr miss rate for WriteReq accesses (Ratio)
system.cpu.dcache.WriteReq.mshrMissRate::total     0.049440                       # mshr miss rate for WriteReq accesses (Ratio)
system.cpu.dcache.WriteReq.avgMshrMissLatency::cpu.data 88739.523395                       # average WriteReq mshr miss latency ((Tick/Count))
system.cpu.dcache.WriteReq.avgMshrMissLatency::total 88739.523395                       # average WriteReq mshr miss latency ((Tick/Count))
system.cpu.dcache.power_state.pwrStateResidencyTicks::UNDEFINED   7372376000                       # Cumulative time (in ticks) in various power states (Tick)
system.cpu.dcache.prefetcher.demandMshrMisses        35744                       # demands not covered by prefetchs (Count)
system.cpu.dcache.prefetcher.pfIssued           34718                       # number of hwpf issued (Count)
system.cpu.dcache.prefetcher.pfUnused              26                       # number of HardPF blocks evicted w/o reference (Count)
system.cpu.dcache.prefetcher.pfUseful           34622                       # number of useful prefetch (Count)
system.cpu.dcache.prefetcher.pfUsefulButMiss            0                       # number of hit on prefetch but cache block is not in an usable state (Count)
system.cpu.dcache.prefetcher.accuracy        0.997235                       # accuracy of the prefetcher (Count)
system.cpu.dcache.prefetcher.coverage        0.492027                       # coverage brought by this prefetcher (Count)
system.cpu.dcache.prefetcher.pfHitInCache           51                       # number of prefetches hitting in cache (Count)
system.cpu.dcache.prefetcher.pfHitInMSHR            0                       # number of prefetches hitting in a MSHR (Count)
system.cpu.dcache.prefetcher.pfHitInWB              0                       # number of prefetches hit in the Write Buffer (Count)
system.cpu.dcache.prefetcher.pfLate                51                       # number of late prefetches (hitting in cache, MSHR or WB) (Count)
system.cpu.dcache.prefetcher.pfIdentified        34813                       # number of prefetch candidates identified (Count)
system.cpu.dcache.prefetcher.pfBufferHit           73                       # number of redundant prefetches already in prefetch queue (Count)
system.cpu.dcache.prefetcher.pfInCache              0                       # number of redundant prefetches already in cache/mshr dropped (Count)
system.cpu.dcache.prefetcher.pfRemovedDemand            2                       # number of prefetches dropped due to a demand for the same address (Count)
system.cpu.dcache.prefetcher.pfRemovedFull            0                       # number of prefetches dropped due to prefetch queue size (Count)
system.cpu.dcache.prefetcher.pfSpanPage            43                       # number of prefetches that crossed the page (Count)
system.cpu.dcache.prefetcher.pfUsefulSpanPage            0                       # number of prefetches that is useful and crossed the page (Count)
system.cpu.dcache.prefetcher.power_state.pwrStateResidencyTicks::UNDEFINED   7372376000                       # Cumulative time (in ticks) in various power states (Tick)
system.cpu.dcache.tags.tagsInUse           997.483882                       # Average ticks per tags in use ((Tick/Count))
system.cpu.dcache.tags.totalRefs              1923902                       # Total number of references to valid blocks. (Count)
system.cpu.dcache.tags.sampledRefs              70410                       # Sample count of references to valid blocks. (Count)
system.cpu.dcache.tags.avgRefs              27.324272                       # Average number of references to valid blocks. ((Count/Count))
system.cpu.dcache.tags.warmupTick              185000                       # The tick when the warmup percentage was hit. (Tick)
system.cpu.dcache.tags.occupancies::cpu.data   565.930095                       # Average occupied blocks per tick, per requestor ((Count/Tick))
system.cpu.dcache.tags.occupancies::cpu.dcache.prefetcher   431.553787                       # Average occupied blocks per tick, per requestor ((Count/Tick))
system.cpu.dcache.tags.avgOccs::cpu.data     0.552666                       # Average percentage of cache occupancy ((Ratio/Tick))
system.cpu.dcache.tags.avgOccs::cpu.dcache.prefetcher     0.421439                       # Average percentage of cache occupancy ((Ratio/Tick))
system.cpu.dcache.tags.avgOccs::total        0.974105                       # Average percentage of cache occupancy ((Ratio/Tick))
system.cpu.dcache.tags.occupanciesTaskId::1022          512                       # Occupied blocks per task id (Count)
system.cpu.dcache.tags.occupanciesTaskId::1024          512                       # Occupied blocks per task id (Count)
system.cpu.dcache.tags.ageTaskId_1022::0           83                       # Occupied blocks per task id, per block age (Count)
system.cpu.dcache.tags.ageTaskId_1022::1          429                       # Occupied blocks per task id, per block age (Count)
system.cpu.dcache.tags.ageTaskId_1024::0           83                       # Occupied blocks per task id, per block age (Count)
system.cpu.dcache.tags.ageTaskId_1024::1          429                       # Occupied blocks per task id, per block age (Count)
system.cpu.dcache.tags.ratioOccsTaskId::1022     0.500000                       # Ratio of occupied blocks and all blocks, per task id (Ratio)
system.cpu.dcache.tags.ratioOccsTaskId::1024     0.500000                       # Ratio of occupied blocks and all blocks, per task id (Ratio)
system.cpu.dcache.tags.tagAccesses            7627850                       # Number of tag accesses (Count)
system.cpu.dcache.tags.dataAccesses           7627850                       # Number of data accesses (Count)
system.cpu.dcache.tags.power_state.pwrStateResidencyTicks::UNDEFINED   7372376000                       # Cumulative time (in ticks) in various power states (Tick)
system.cpu.decode.idleCycles                   236792                       # Number of cycles decode is idle (Cycle)
system.cpu.decode.blockedCycles               6356864                       # Number of cycles decode is blocked (Cycle)
system.cpu.decode.runCycles                    202228                       # Number of cycles decode is running (Cycle)
system.cpu.decode.unblockCycles                563181                       # Number of cycles decode is unblocking (Cycle)
system.cpu.decode.squashCycles                   2020                       # Number of cycles decode is squashing (Cycle)
system.cpu.decode.branchResolved               112037                       # Number of times decode resolved a branch (Count)
system.cpu.decode.branchMispred                   274                       # Number of times decode detected a branch misprediction (Count)
system.cpu.decode.decodedInsts                6111257                       # Number of instructions handled by decode (Count)
system.cpu.decode.squashedInsts                  1182                       # Number of squashed instructions handled by decode (Count)
system.cpu.fetch.icacheStallCycles             282851                       # Number of cycles fetch is stalled on an Icache miss (Cycle)
system.cpu.fetch.insts                        5099821                       # Number of instructions fetch has processed (Count)
system.cpu.fetch.branches                      121828                       # Number of branches that fetch encountered (Count)
system.cpu.fetch.predictedBranches             117167                       # Number of branches that fetch has predicted taken (Count)
system.cpu.fetch.cycles                       7075778                       # Number of cycles fetch has run and was not squashing or blocked (Cycle)
system.cpu.fetch.squashCycles                    4582                       # Number of cycles fetch has spent squashing (Cycle)
system.cpu.fetch.miscStallCycles                   25                       # Number of cycles fetch has spent waiting on interrupts, or bad addresses, or out of MSHRs (Cycle)
system.cpu.fetch.pendingTrapStallCycles           120                       # Number of stall cycles due to pending traps (Cycle)
system.cpu.fetch.icacheWaitRetryStallCycles           20                       # Number of stall cycles due to full MSHR (Cycle)
system.cpu.fetch.cacheLines                    268758                       # Number of cache lines fetched (Count)
system.cpu.fetch.icacheSquashes                   442                       # Number of outstanding Icache misses that were squashed (Count)
system.cpu.fetch.nisnDist::samples            7361085                       # Number of instructions fetched each cycle (Total) (Count)
system.cpu.fetch.nisnDist::mean              0.839589                       # Number of instructions fetched each cycle (Total) (Count)
system.cpu.fetch.nisnDist::stdev             2.265223                       # Number of instructions fetched each cycle (Total) (Count)
system.cpu.fetch.nisnDist::underflows               0      0.00%      0.00% # Number of instructions fetched each cycle (Total) (Count)
system.cpu.fetch.nisnDist::0                  6319999     85.86%     85.86% # Number of instructions fetched each cycle (Total) (Count)
system.cpu.fetch.nisnDist::1                    55482      0.75%     86.61% # Number of instructions fetched each cycle (Total) (Count)
system.cpu.fetch.nisnDist::2                    90656      1.23%     87.84% # Number of instructions fetched each cycle (Total) (Count)
system.cpu.fetch.nisnDist::3                    90915      1.24%     89.08% # Number of instructions fetched each cycle (Total) (Count)
system.cpu.fetch.nisnDist::4                   101342      1.38%     90.45% # Number of instructions fetched each cycle (Total) (Count)
system.cpu.fetch.nisnDist::5                    52965      0.72%     91.17% # Number of instructions fetched each cycle (Total) (Count)
system.cpu.fetch.nisnDist::6                    77374      1.05%     92.22% # Number of instructions fetched each cycle (Total) (Count)
system.cpu.fetch.nisnDist::7                    42505      0.58%     92.80% # Number of instructions fetched each cycle (Total) (Count)
system.cpu.fetch.nisnDist::8                   529847      7.20%    100.00% # Number of instructions fetched each cycle (Total) (Count)
system.cpu.fetch.nisnDist::overflows                0      0.00%    100.00% # Number of instructions fetched each cycle (Total) (Count)
system.cpu.fetch.nisnDist::min_value                0                       # Number of instructions fetched each cycle (Total) (Count)
system.cpu.fetch.nisnDist::max_value                8                       # Number of instructions fetched each cycle (Total) (Count)
system.cpu.fetch.nisnDist::total              7361085                       # Number of instructions fetched each cycle (Total) (Count)
system.cpu.fetch.branchRate                  0.016525                       # Number of branch fetches per cycle (Ratio)
system.cpu.fetch.rate                        0.691746                       # Number of inst fetches per cycle ((Count/Cycle))
system.cpu.icache.demandHits::cpu.inst         268121                       # number of demand (read+write) hits (Count)
system.cpu.icache.demandHits::total            268121                       # number of demand (read+write) hits (Count)
system.cpu.icache.overallHits::cpu.inst        268121                       # number of overall hits (Count)
system.cpu.icache.overallHits::total           268121                       # number of overall hits (Count)
system.cpu.icache.demandMisses::cpu.inst          637                       # number of demand (read+write) misses (Count)
system.cpu.icache.demandMisses::total             637                       # number of demand (read+write) misses (Count)
system.cpu.icache.overallMisses::cpu.inst          637                       # number of overall misses (Count)
system.cpu.icache.overallMisses::total            637                       # number of overall misses (Count)
system.cpu.icache.demandMissLatency::cpu.inst     47131999                       # number of demand (read+write) miss ticks (Tick)
system.cpu.icache.demandMissLatency::total     47131999                       # number of demand (read+write) miss ticks (Tick)
system.cpu.icache.overallMissLatency::cpu.inst     47131999                       # number of overall miss ticks (Tick)
system.cpu.icache.overallMissLatency::total     47131999                       # number of overall miss ticks (Tick)
system.cpu.icache.demandAccesses::cpu.inst       268758                       # number of demand (read+write) accesses (Count)
system.cpu.icache.demandAccesses::total        268758                       # number of demand (read+write) accesses (Count)
system.cpu.icache.overallAccesses::cpu.inst       268758                       # number of overall (read+write) accesses (Count)
system.cpu.icache.overallAccesses::total       268758                       # number of overall (read+write) accesses (Count)
system.cpu.icache.demandMissRate::cpu.inst     0.002370                       # miss rate for demand accesses (Ratio)
system.cpu.icache.demandMissRate::total      0.002370                       # miss rate for demand accesses (Ratio)
system.cpu.icache.overallMissRate::cpu.inst     0.002370                       # miss rate for overall accesses (Ratio)
system.cpu.icache.overallMissRate::total     0.002370                       # miss rate for overall accesses (Ratio)
system.cpu.icache.demandAvgMissLatency::cpu.inst 73990.579278                       # average overall miss latency in ticks ((Tick/Count))
system.cpu.icache.demandAvgMissLatency::total 73990.579278                       # average overall miss latency in ticks ((Tick/Count))
system.cpu.icache.overallAvgMissLatency::cpu.inst 73990.579278                       # average overall miss latency ((Tick/Count))
system.cpu.icache.overallAvgMissLatency::total 73990.579278                       # average overall miss latency ((Tick/Count))
system.cpu.icache.blockedCycles::no_mshrs          116                       # number of cycles access was blocked (Cycle)
system.cpu.icache.blockedCycles::no_targets            0                       # number of cycles access was blocked (Cycle)
system.cpu.icache.blockedCauses::no_mshrs            6                       # number of times access was blocked (Count)
system.cpu.icache.blockedCauses::no_targets            0                       # number of times access was blocked (Count)
system.cpu.icache.avgBlocked::no_mshrs      19.333333                       # average number of cycles each access was blocked ((Cycle/Count))
system.cpu.icache.avgBlocked::no_targets          nan                       # average number of cycles each access was blocked ((Cycle/Count))
system.cpu.icache.demandMshrHits::cpu.inst          171                       # number of demand (read+write) MSHR hits (Count)
system.cpu.icache.demandMshrHits::total           171                       # number of demand (read+write) MSHR hits (Count)
system.cpu.icache.overallMshrHits::cpu.inst          171                       # number of overall MSHR hits (Count)
system.cpu.icache.overallMshrHits::total          171                       # number of overall MSHR hits (Count)
system.cpu.icache.demandMshrMisses::cpu.inst          466                       # number of demand (read+write) MSHR misses (Count)
system.cpu.icache.demandMshrMisses::total          466                       # number of demand (read+write) MSHR misses (Count)
system.cpu.icache.overallMshrMisses::cpu.inst          466                       # number of overall MSHR misses (Count)
system.cpu.icache.overallMshrMisses::total          466                       # number of overall MSHR misses (Count)
system.cpu.icache.demandMshrMissLatency::cpu.inst     38095999                       # number of demand (read+write) MSHR miss ticks (Tick)
system.cpu.icache.demandMshrMissLatency::total     38095999                       # number of demand (read+write) MSHR miss ticks (Tick)
system.cpu.icache.overallMshrMissLatency::cpu.inst     38095999                       # number of overall MSHR miss ticks (Tick)
system.cpu.icache.overallMshrMissLatency::total     38095999                       # number of overall MSHR miss ticks (Tick)
system.cpu.icache.demandMshrMissRate::cpu.inst     0.001734                       # mshr miss ratio for demand accesses (Ratio)
system.cpu.icache.demandMshrMissRate::total     0.001734                       # mshr miss ratio for demand accesses (Ratio)
system.cpu.icache.overallMshrMissRate::cpu.inst     0.001734                       # mshr miss ratio for overall accesses (Ratio)
system.cpu.icache.overallMshrMissRate::total     0.001734                       # mshr miss ratio for overall accesses (Ratio)
system.cpu.icache.demandAvgMshrMissLatency::cpu.inst 81751.070815                       # average overall mshr miss latency ((Tick/Count))
system.cpu.icache.demandAvgMshrMissLatency::total 81751.070815                       # average overall mshr miss latency ((Tick/Count))
system.cpu.icache.overallAvgMshrMissLatency::cpu.inst 81751.070815                       # average overall mshr miss latency ((Tick/Count))
system.cpu.icache.overallAvgMshrMissLatency::total 81751.070815                       # average overall mshr miss latency ((Tick/Count))
system.cpu.icache.replacements                     10                       # number of replacements (Count)
system.cpu.icache.ReadReq.hits::cpu.inst       268121                       # number of ReadReq hits (Count)
system.cpu.icache.ReadReq.hits::total          268121                       # number of ReadReq hits (Count)
system.cpu.icache.ReadReq.misses::cpu.inst          637                       # number of ReadReq misses (Count)
system.cpu.icache.ReadReq.misses::total           637                       # number of ReadReq misses (Count)
system.cpu.icache.ReadReq.missLatency::cpu.inst     47131999                       # number of ReadReq miss ticks (Tick)
system.cpu.icache.ReadReq.missLatency::total     47131999                       # number of ReadReq miss ticks (Tick)
system.cpu.icache.ReadReq.accesses::cpu.inst       268758                       # number of ReadReq accesses(hits+misses) (Count)
system.cpu.icache.ReadReq.accesses::total       268758                       # number of ReadReq accesses(hits+misses) (Count)
system.cpu.icache.ReadReq.missRate::cpu.inst     0.002370                       # miss rate for ReadReq accesses (Ratio)
system.cpu.icache.ReadReq.missRate::total     0.002370                       # miss rate for ReadReq accesses (Ratio)
system.cpu.icache.ReadReq.avgMissLatency::cpu.inst 73990.579278                       # average ReadReq miss latency ((Tick/Count))
system.cpu.icache.ReadReq.avgMissLatency::total 73990.579278                       # average ReadReq miss latency ((Tick/Count))
system.cpu.icache.ReadReq.mshrHits::cpu.inst          171                       # number of ReadReq MSHR hits (Count)
system.cpu.icache.ReadReq.mshrHits::total          171                       # number of ReadReq MSHR hits (Count)
system.cpu.icache.ReadReq.mshrMisses::cpu.inst          466                       # number of ReadReq MSHR misses (Count)
system.cpu.icache.ReadReq.mshrMisses::total          466                       # number of ReadReq MSHR misses (Count)
system.cpu.icache.ReadReq.mshrMissLatency::cpu.inst     38095999                       # number of ReadReq MSHR miss ticks (Tick)
system.cpu.icache.ReadReq.mshrMissLatency::total     38095999                       # number of ReadReq MSHR miss ticks (Tick)
system.cpu.icache.ReadReq.mshrMissRate::cpu.inst     0.001734                       # mshr miss rate for ReadReq accesses (Ratio)
system.cpu.icache.ReadReq.mshrMissRate::total     0.001734                       # mshr miss rate for ReadReq accesses (Ratio)
system.cpu.icache.ReadReq.avgMshrMissLatency::cpu.inst 81751.070815                       # average ReadReq mshr miss latency ((Tick/Count))
system.cpu.icache.ReadReq.avgMshrMissLatency::total 81751.070815                       # average ReadReq mshr miss latency ((Tick/Count))
system.cpu.icache.power_state.pwrStateResidencyTicks::UNDEFINED   7372376000                       # Cumulative time (in ticks) in various power states (Tick)
system.cpu.icache.prefetcher.demandMshrMisses          466                       # demands not covered by prefetchs (Count)
system.cpu.icache.prefetcher.pfIssued               0                       # number of hwpf issued (Count)
system.cpu.icache.prefetcher.pfUseful               0                       # number of useful prefetch (Count)
system.cpu.icache.prefetcher.pfUsefulButMiss            0                       # number of hit on prefetch but cache block is not in an usable state (Count)
system.cpu.icache.prefetcher.accuracy             nan                       # accuracy of the prefetcher (Count)
system.cpu.icache.prefetcher.coverage               0                       # coverage brought by this prefetcher (Count)
system.cpu.icache.prefetcher.pfHitInCache            0                       # number of prefetches hitting in cache (Count)
system.cpu.icache.prefetcher.pfHitInMSHR            0                       # number of prefetches hitting in a MSHR (Count)
system.cpu.icache.prefetcher.pfHitInWB              0                       # number of prefetches hit in the Write Buffer (Count)
system.cpu.icache.prefetcher.pfLate                 0                       # number of late prefetches (hitting in cache, MSHR or WB) (Count)
system.cpu.icache.prefetcher.pfIdentified            0                       # number of prefetch candidates identified (Count)
system.cpu.icache.prefetcher.pfBufferHit            0                       # number of redundant prefetches already in prefetch queue (Count)
system.cpu.icache.prefetcher.pfInCache              0                       # number of redundant prefetches already in cache/mshr dropped (Count)
system.cpu.icache.prefetcher.pfRemovedDemand            0                       # number of prefetches dropped due to a demand for the same address (Count)
system.cpu.icache.prefetcher.pfRemovedFull            0                       # number of prefetches dropped due to prefetch queue size (Count)
system.cpu.icache.prefetcher.pfSpanPage             0                       # number of prefetches that crossed the page (Count)
system.cpu.icache.prefetcher.pfUsefulSpanPage            0                       # number of prefetches that is useful and crossed the page (Count)
system.cpu.icache.prefetcher.power_state.pwrStateResidencyTicks::UNDEFINED   7372376000                       # Cumulative time (in ticks) in various power states (Tick)
system.cpu.icache.tags.tagsInUse           438.056451                       # Average ticks per tags in use ((Tick/Count))
system.cpu.icache.tags.totalRefs               268587                       # Total number of references to valid blocks. (Count)
system.cpu.icache.tags.sampledRefs                466                       # Sample count of references to valid blocks. (Count)
system.cpu.icache.tags.avgRefs             576.366953                       # Average number of references to valid blocks. ((Count/Count))
system.cpu.icache.tags.warmupTick               88000                       # The tick when the warmup percentage was hit. (Tick)
system.cpu.icache.tags.occupancies::cpu.inst   438.056451                       # Average occupied blocks per tick, per requestor ((Count/Tick))
system.cpu.icache.tags.avgOccs::cpu.inst     0.427790                       # Average percentage of cache occupancy ((Ratio/Tick))
system.cpu.icache.tags.avgOccs::total        0.427790                       # Average percentage of cache occupancy ((Ratio/Tick))
system.cpu.icache.tags.occupanciesTaskId::1024          456                       # Occupied blocks per task id (Count)
system.cpu.icache.tags.ageTaskId_1024::3          456                       # Occupied blocks per task id, per block age (Count)
system.cpu.icache.tags.ratioOccsTaskId::1024     0.445312                       # Ratio of occupied blocks and all blocks, per task id (Ratio)
system.cpu.icache.tags.tagAccesses            1075498                       # Number of tag accesses (Count)
system.cpu.icache.tags.dataAccesses           1075498                       # Number of data accesses (Count)
system.cpu.icache.tags.power_state.pwrStateResidencyTicks::UNDEFINED   7372376000                       # Cumulative time (in ticks) in various power states (Tick)
system.cpu.iew.idleCycles                           0                       # Number of cycles IEW is idle (Cycle)
system.cpu.iew.squashCycles                      2020                       # Number of cycles IEW is squashing (Cycle)
system.cpu.iew.blockCycles                      10716                       # Number of cycles IEW is blocking (Cycle)
system.cpu.iew.unblockCycles                  1964489                       # Number of cycles IEW is unblocking (Cycle)
system.cpu.iew.dispatchedInsts                6098098                       # Number of instructions dispatched to IQ (Count)
system.cpu.iew.dispSquashedInsts                   32                       # Number of squashed instructions skipped by dispatch (Count)
system.cpu.iew.dispLoadInsts                  1320606                       # Number of dispatched load instructions (Count)
system.cpu.iew.dispStoreInsts                  765489                       # Number of dispatched store instructions (Count)
system.cpu.iew.dispNonSpecInsts                    88                       # Number of dispatched non-speculative instructions (Count)
system.cpu.iew.iqFullEvents                         0                       # Number of times the IQ has become full, causing a stall (Count)
system.cpu.iew.lsqFullEvents                  1964486                       # Number of times the LSQ has become full, causing a stall (Count)
system.cpu.iew.memOrderViolationEvents            106                       # Number of memory order violations (Count)
[...]
system.mem_ctrl.dram.numWrites::writebacks        66167                       # Number of write requests responded to by this memory (Count)
system.mem_ctrl.dram.numWrites::total           66167                       # Number of write requests responded to by this memory (Count)
system.mem_ctrl.dram.bwRead::cpu.inst         4036690                       # Total read bandwidth from this memory ((Byte/Second))
system.mem_ctrl.dram.bwRead::cpu.data       308073272                       # Total read bandwidth from this memory ((Byte/Second))
system.mem_ctrl.dram.bwRead::cpu.dcache.prefetcher    295537829                       # Total read bandwidth from this memory ((Byte/Second))
system.mem_ctrl.dram.bwRead::l2cache.prefetcher      7335491                       # Total read bandwidth from this memory ((Byte/Second))
system.mem_ctrl.dram.bwRead::total          614983284                       # Total read bandwidth from this memory ((Byte/Second))
system.mem_ctrl.dram.bwInstRead::cpu.inst      4036690                       # Instruction read bandwidth from this memory ((Byte/Second))
system.mem_ctrl.dram.bwInstRead::total        4036690                       # Instruction read bandwidth from this memory ((Byte/Second))
system.mem_ctrl.dram.bwWrite::writebacks    574399352                       # Write bandwidth from this memory ((Byte/Second))
system.mem_ctrl.dram.bwWrite::total         574399352                       # Write bandwidth from this memory ((Byte/Second))
system.mem_ctrl.dram.bwTotal::writebacks    574399352                       # Total bandwidth to/from this memory ((Byte/Second))
system.mem_ctrl.dram.bwTotal::cpu.inst        4036690                       # Total bandwidth to/from this memory ((Byte/Second))
system.mem_ctrl.dram.bwTotal::cpu.data      308073272                       # Total bandwidth to/from this memory ((Byte/Second))
system.mem_ctrl.dram.bwTotal::cpu.dcache.prefetcher    295537829                       # Total bandwidth to/from this memory ((Byte/Second))
system.mem_ctrl.dram.bwTotal::l2cache.prefetcher      7335491                       # Total bandwidth to/from this memory ((Byte/Second))
system.mem_ctrl.dram.bwTotal::total        1189382636                       # Total bandwidth to/from this memory ((Byte/Second))
system.mem_ctrl.dram.readBursts                 70842                       # Number of DRAM read bursts (Count)
system.mem_ctrl.dram.writeBursts                66142                       # Number of DRAM write bursts (Count)
system.mem_ctrl.dram.perBankRdBursts::0          4452                       # Per bank write bursts (Count)
system.mem_ctrl.dram.perBankRdBursts::1          4375                       # Per bank write bursts (Count)
system.mem_ctrl.dram.perBankRdBursts::2          4370                       # Per bank write bursts (Count)
system.mem_ctrl.dram.perBankRdBursts::3          4460                       # Per bank write bursts (Count)
system.mem_ctrl.dram.perBankRdBursts::4          4547                       # Per bank write bursts (Count)
system.mem_ctrl.dram.perBankRdBursts::5          4453                       # Per bank write bursts (Count)
system.mem_ctrl.dram.perBankRdBursts::6          4440                       # Per bank write bursts (Count)
system.mem_ctrl.dram.perBankRdBursts::7          4403                       # Per bank write bursts (Count)
system.mem_ctrl.dram.perBankRdBursts::8          4339                       # Per bank write bursts (Count)
system.mem_ctrl.dram.perBankRdBursts::9          4472                       # Per bank write bursts (Count)
system.mem_ctrl.dram.perBankRdBursts::10         4457                       # Per bank write bursts (Count)
system.mem_ctrl.dram.perBankRdBursts::11         4416                       # Per bank write bursts (Count)
system.mem_ctrl.dram.perBankRdBursts::12         4310                       # Per bank write bursts (Count)
system.mem_ctrl.dram.perBankRdBursts::13         4443                       # Per bank write bursts (Count)
system.mem_ctrl.dram.perBankRdBursts::14         4440                       # Per bank write bursts (Count)
system.mem_ctrl.dram.perBankRdBursts::15         4465                       # Per bank write bursts (Count)
system.mem_ctrl.dram.perBankWrBursts::0          4096                       # Per bank write bursts (Count)
system.mem_ctrl.dram.perBankWrBursts::1          4096                       # Per bank write bursts (Count)
system.mem_ctrl.dram.perBankWrBursts::2          4096                       # Per bank write bursts (Count)
system.mem_ctrl.dram.perBankWrBursts::3          4197                       # Per bank write bursts (Count)
system.mem_ctrl.dram.perBankWrBursts::4          4266                       # Per bank write bursts (Count)
system.mem_ctrl.dram.perBankWrBursts::5          4182                       # Per bank write bursts (Count)
system.mem_ctrl.dram.perBankWrBursts::6          4178                       # Per bank write bursts (Count)
system.mem_ctrl.dram.perBankWrBursts::7          4087                       # Per bank write bursts (Count)
system.mem_ctrl.dram.perBankWrBursts::8          4070                       # Per bank write bursts (Count)
system.mem_ctrl.dram.perBankWrBursts::9          4156                       # Per bank write bursts (Count)
system.mem_ctrl.dram.perBankWrBursts::10         4104                       # Per bank write bursts (Count)
system.mem_ctrl.dram.perBankWrBursts::11         4117                       # Per bank write bursts (Count)
system.mem_ctrl.dram.perBankWrBursts::12         4039                       # Per bank write bursts (Count)
system.mem_ctrl.dram.perBankWrBursts::13         4153                       # Per bank write bursts (Count)
system.mem_ctrl.dram.perBankWrBursts::14         4159                       # Per bank write bursts (Count)
system.mem_ctrl.dram.perBankWrBursts::15         4146                       # Per bank write bursts (Count)
system.mem_ctrl.dram.totQLat                725270007                       # Total ticks spent queuing (Tick)
system.mem_ctrl.dram.totBusLat              354210000                       # Total ticks spent in databus transfers (Tick)
system.mem_ctrl.dram.totMemAccLat          2053557507                       # Total ticks spent from burst creation until serviced by the DRAM (Tick)
system.mem_ctrl.dram.avgQLat                 10237.85                       # Average queueing delay per DRAM burst ((Tick/Count))
system.mem_ctrl.dram.avgBusLat                5000.00                       # Average bus latency per DRAM burst ((Tick/Count))
system.mem_ctrl.dram.avgMemAccLat            28987.85                       # Average memory access latency per DRAM burst ((Tick/Count))
system.mem_ctrl.dram.readRowHits                64927                       # Number of row buffer hits during reads (Count)
system.mem_ctrl.dram.writeRowHits               61336                       # Number of row buffer hits during writes (Count)
system.mem_ctrl.dram.readRowHitRate             91.65                       # Row buffer hit rate for reads (Ratio)
system.mem_ctrl.dram.writeRowHitRate            92.73                       # Row buffer hit rate for writes (Ratio)
system.mem_ctrl.dram.bytesPerActivate::samples        10719                       # Bytes accessed per row activation (Byte)
system.mem_ctrl.dram.bytesPerActivate::mean   817.819573                       # Bytes accessed per row activation (Byte)
system.mem_ctrl.dram.bytesPerActivate::gmean   657.530347                       # Bytes accessed per row activation (Byte)
system.mem_ctrl.dram.bytesPerActivate::stdev   344.551167                       # Bytes accessed per row activation (Byte)
system.mem_ctrl.dram.bytesPerActivate::0-127          690      6.44%      6.44% # Bytes accessed per row activation (Byte)
system.mem_ctrl.dram.bytesPerActivate::128-255          672      6.27%     12.71% # Bytes accessed per row activation (Byte)
system.mem_ctrl.dram.bytesPerActivate::256-383          767      7.16%     19.86% # Bytes accessed per row activation (Byte)
system.mem_ctrl.dram.bytesPerActivate::384-511          104      0.97%     20.83% # Bytes accessed per row activation (Byte)
system.mem_ctrl.dram.bytesPerActivate::512-639          158      1.47%     22.31% # Bytes accessed per row activation (Byte)
system.mem_ctrl.dram.bytesPerActivate::640-767           90      0.84%     23.15% # Bytes accessed per row activation (Byte)
system.mem_ctrl.dram.bytesPerActivate::768-895          540      5.04%     28.18% # Bytes accessed per row activation (Byte)
system.mem_ctrl.dram.bytesPerActivate::896-1023          543      5.07%     33.25% # Bytes accessed per row activation (Byte)
system.mem_ctrl.dram.bytesPerActivate::1024-1151         7155     66.75%    100.00% # Bytes accessed per row activation (Byte)
system.mem_ctrl.dram.bytesPerActivate::total        10719                       # Bytes accessed per row activation (Byte)
system.mem_ctrl.dram.bytesRead                4533888                       # Total bytes read (Byte)
system.mem_ctrl.dram.bytesWritten             4233088                       # Total bytes written (Byte)
system.mem_ctrl.dram.avgRdBW               614.983284                       # Average DRAM read bandwidth in MiBytes/s ((Byte/Second))
system.mem_ctrl.dram.avgWrBW               574.182326                       # Average DRAM write bandwidth in MiBytes/s ((Byte/Second))
system.mem_ctrl.dram.peakBW                  12800.00                       # Theoretical peak bandwidth in MiByte/s ((Byte/Second))
system.mem_ctrl.dram.busUtil                     9.29                       # Data bus utilization in percentage (Ratio)
system.mem_ctrl.dram.busUtilRead                 4.80                       # Data bus utilization in percentage for reads (Ratio)
system.mem_ctrl.dram.busUtilWrite                4.49                       # Data bus utilization in percentage for writes (Ratio)
system.mem_ctrl.dram.pageHitRate                92.17                       # Row buffer hit rate, read and write combined (Ratio)
system.mem_ctrl.dram.power_state.pwrStateResidencyTicks::UNDEFINED   7372376000                       # Cumulative time (in ticks) in various power states (Tick)
system.mem_ctrl.dram.rank0.actEnergy         38513160                       # Energy for activate commands per rank (pJ) (Joule)
system.mem_ctrl.dram.rank0.preEnergy         20470230                       # Energy for precharge commands per rank (pJ) (Joule)
system.mem_ctrl.dram.rank0.readEnergy       253470000                       # Energy for read commands per rank (pJ) (Joule)
system.mem_ctrl.dram.rank0.writeEnergy      173293560                       # Energy for write commands per rank (pJ) (Joule)
system.mem_ctrl.dram.rank0.refreshEnergy 581449440.000000                       # Energy for refresh commands per rank (pJ) (Joule)
system.mem_ctrl.dram.rank0.actBackEnergy   1775191470                       # Energy for active background per rank (pJ) (Joule)
system.mem_ctrl.dram.rank0.preBackEnergy   1336094400                       # Energy for precharge background per rank (pJ) (Joule)
system.mem_ctrl.dram.rank0.actPowerDownEnergy            0                       # Energy for active power-down per rank (pJ) (Joule)
system.mem_ctrl.dram.rank0.prePowerDownEnergy            0                       # Energy for precharge power-down per rank (pJ) (Joule)
system.mem_ctrl.dram.rank0.selfRefreshEnergy            0                       # Energy for self refresh per rank (pJ) (Joule)
system.mem_ctrl.dram.rank0.totalEnergy     4178482260                       # Total energy per rank (pJ) (Joule)
system.mem_ctrl.dram.rank0.averagePower    566.775523                       # Core power per rank (mW) (Watt)
system.mem_ctrl.dram.rank0.totalIdleTime            0                       # Total Idle time Per DRAM Rank (Tick)
system.mem_ctrl.dram.rank0.pwrStateTime::IDLE   3444472187                       # Time in different power states (Tick)
system.mem_ctrl.dram.rank0.pwrStateTime::REF    245960000                       # Time in different power states (Tick)
system.mem_ctrl.dram.rank0.pwrStateTime::SREF            0                       # Time in different power states (Tick)
system.mem_ctrl.dram.rank0.pwrStateTime::PRE_PDN            0                       # Time in different power states (Tick)
system.mem_ctrl.dram.rank0.pwrStateTime::ACT   3681943813                       # Time in different power states (Tick)
system.mem_ctrl.dram.rank0.pwrStateTime::ACT_PDN            0                       # Time in different power states (Tick)
system.mem_ctrl.dram.rank1.actEnergy         38034780                       # Energy for activate commands per rank (pJ) (Joule)
system.mem_ctrl.dram.rank1.preEnergy         20208375                       # Energy for precharge commands per rank (pJ) (Joule)
system.mem_ctrl.dram.rank1.readEnergy       252341880                       # Energy for read commands per rank (pJ) (Joule)
system.mem_ctrl.dram.rank1.writeEnergy      171936360                       # Energy for write commands per rank (pJ) (Joule)
system.mem_ctrl.dram.rank1.refreshEnergy 581449440.000000                       # Energy for refresh commands per rank (pJ) (Joule)
system.mem_ctrl.dram.rank1.actBackEnergy   1787025810                       # Energy for active background per rank (pJ) (Joule)
system.mem_ctrl.dram.rank1.preBackEnergy   1326128640                       # Energy for precharge background per rank (pJ) (Joule)
system.mem_ctrl.dram.rank1.actPowerDownEnergy            0                       # Energy for active power-down per rank (pJ) (Joule)
system.mem_ctrl.dram.rank1.prePowerDownEnergy            0                       # Energy for precharge power-down per rank (pJ) (Joule)
system.mem_ctrl.dram.rank1.selfRefreshEnergy            0                       # Energy for self refresh per rank (pJ) (Joule)
system.mem_ctrl.dram.rank1.totalEnergy     4177125285                       # Total energy per rank (pJ) (Joule)
system.mem_ctrl.dram.rank1.averagePower    566.591460                       # Core power per rank (mW) (Watt)
system.mem_ctrl.dram.rank1.totalIdleTime            0                       # Total Idle time Per DRAM Rank (Tick)
system.mem_ctrl.dram.rank1.pwrStateTime::IDLE   3419213443                       # Time in different power states (Tick)
system.mem_ctrl.dram.rank1.pwrStateTime::REF    245960000                       # Time in different power states (Tick)
system.mem_ctrl.dram.rank1.pwrStateTime::SREF            0                       # Time in different power states (Tick)
system.mem_ctrl.dram.rank1.pwrStateTime::PRE_PDN            0                       # Time in different power states (Tick)
system.mem_ctrl.dram.rank1.pwrStateTime::ACT   3707202557                       # Time in different power states (Tick)
system.mem_ctrl.dram.rank1.pwrStateTime::ACT_PDN            0                       # Time in different power states (Tick)
system.mem_ctrl.power_state.pwrStateResidencyTicks::UNDEFINED   7372376000                       # Cumulative time (in ticks) in various power states (Tick)
system.membus.transDist::ReadResp               35453                       # Transaction distribution (Count)
system.membus.transDist::WritebackDirty         66167                       # Transaction distribution (Count)
system.membus.transDist::CleanEvict               122                       # Transaction distribution (Count)
system.membus.transDist::ReadExReq              35389                       # Transaction distribution (Count)
system.membus.transDist::ReadExResp             35389                       # Transaction distribution (Count)
system.membus.transDist::ReadSharedReq          35453                       # Transaction distribution (Count)
system.membus.pktCount_system.l2cache.mem_side_port::system.mem_ctrl.port       207973                       # Packet count per connected requestor and responder (Count)
system.membus.pktCount_system.l2cache.mem_side_port::total       207973                       # Packet count per connected requestor and responder (Count)
system.membus.pktCount::total                  207973                       # Packet count per connected requestor and responder (Count)
system.membus.pktSize_system.l2cache.mem_side_port::system.mem_ctrl.port      8768576                       # Cumulative packet size per connected requestor and responder (Byte)
system.membus.pktSize_system.l2cache.mem_side_port::total      8768576                       # Cumulative packet size per connected requestor and responder (Byte)
system.membus.pktSize::total                  8768576                       # Cumulative packet size per connected requestor and responder (Byte)
system.membus.snoops                                0                       # Total snoops (Count)
system.membus.snoopTraffic                          0                       # Total snoop traffic (Byte)
system.membus.snoopFanout::samples              70842                       # Request fanout histogram (Count)
system.membus.snoopFanout::mean                     0                       # Request fanout histogram (Count)
system.membus.snoopFanout::stdev                    0                       # Request fanout histogram (Count)
system.membus.snoopFanout::underflows               0      0.00%      0.00% # Request fanout histogram (Count)
system.membus.snoopFanout::0                    70842    100.00%    100.00% # Request fanout histogram (Count)
system.membus.snoopFanout::1                        0      0.00%    100.00% # Request fanout histogram (Count)
system.membus.snoopFanout::overflows                0      0.00%    100.00% # Request fanout histogram (Count)
system.membus.snoopFanout::min_value                0                       # Request fanout histogram (Count)
system.membus.snoopFanout::max_value                0                       # Request fanout histogram (Count)
system.membus.snoopFanout::total                70842                       # Request fanout histogram (Count)
system.membus.power_state.pwrStateResidencyTicks::UNDEFINED   7372376000                       # Cumulative time (in ticks) in various power states (Tick)
system.membus.reqLayer2.occupancy           401845532                       # Layer occupancy (ticks) (Tick)
system.membus.reqLayer2.utilization               0.1                       # Layer utilization (Ratio)
system.membus.respLayer0.occupancy          368058377                       # Layer occupancy (ticks) (Tick)
system.membus.respLayer0.utilization              0.0                       # Layer utilization (Ratio)
system.membus.snoop_filter.totRequests         137131                       # Total number of requests made to the snoop filter. (Count)
system.membus.snoop_filter.hitSingleRequests        66289                       # Number of requests hitting in the snoop filter with a single holder of the requested data. (Count)
system.membus.snoop_filter.hitMultiRequests            0                       # Number of requests hitting in the snoop filter with multiple (>1) holders of the requested data. (Count)
system.membus.snoop_filter.totSnoops                0                       # Total number of snoops made to the snoop filter. (Count)
system.membus.snoop_filter.hitSingleSnoops            0                       # Number of snoops hitting in the snoop filter with a single holder of the requested data. (Count)
system.membus.snoop_filter.hitMultiSnoops            0                       # Number of snoops hitting in the snoop filter with multiple (>1) holders of the requested data. (Count)
system.workload.inst.arm                            0                       # number of arm instructions executed (Count)
system.workload.inst.quiesce                        0                       # number of quiesce instructions executed (Count)

---------- End Simulation Statistics   ----------
