
---------- Begin Simulation Statistics ----------
simSeconds                                   0.394509                       # Number of seconds simulated (Second)
simTicks                                 394508760000                       # Number of ticks simulated (Tick)
finalTick                                394508760000                       # Number of ticks from beginning of simulation (restored from checkpoints and never reset) (Tick)
simFreq                                  1000000000000                       # The number of ticks per simulated second ((Tick/Second))
hostSeconds                                    896.40                       # Real time elapsed on the host (Second)
hostTickRate                                440103990                       # The number of ticks simulated per host second (ticks/s) ((Tick/Second))
hostMemory                                    8530828                       # Number of bytes of host memory used (Byte)
simInsts                                     50000000                       # Number of instructions simulated (Count)
simOps                                       95981340                       # Number of ops (including micro ops) simulated (Count)
hostInstRate                                    55779                       # Simulator instruction rate (inst/s) ((Count/Second))
hostOpRate                                     107074                       # Simulator op (including micro ops) rate (op/s) ((Count/Second))
system.clk_domain.clock                          1000                       # Clock period in ticks (Tick)
system.clk_domain.voltage_domain.voltage            1                       # Voltage in Volts (Volt)
system.cpu.numCycles                        394508767                       # Number of cpu cycles simulated (Cycle)
system.cpu.numWorkItemsStarted                      0                       # Number of work items this cpu started (Count)
system.cpu.numWorkItemsCompleted                    0                       # Number of work items this cpu completed (Count)
system.cpu.instsAdded                       100832142                       # Number of instructions added to the IQ (excludes non-spec) (Count)
system.cpu.nonSpecInstsAdded                      701                       # Number of non-speculative instructions added to the IQ (Count)
system.cpu.instsIssued                      100749855                       # Number of instructions issued (Count)
system.cpu.squashedInstsIssued                   1414                       # Number of squashed instructions issued (Count)
system.cpu.squashedInstsExamined              4851495                       # Number of squashed instructions iterated over during squash; mainly for profiling (Count)
system.cpu.squashedOperandsExamined          11640975                       # Number of squashed operands that are examined and possibly removed from graph (Count)
system.cpu.squashedNonSpecRemoved                 653                       # Number of squashed non-spec instructions that were removed (Count)
system.cpu.numIssuedDist::samples           394486308                       # Number of insts issued each cycle (Count)
system.cpu.numIssuedDist::mean               0.255395                       # Number of insts issued each cycle (Count)
system.cpu.numIssuedDist::stdev              0.697654                       # Number of insts issued each cycle (Count)
system.cpu.numIssuedDist::underflows                0      0.00%      0.00% # Number of insts issued each cycle (Count)
system.cpu.numIssuedDist::0                 327210911     82.95%     82.95% # Number of insts issued each cycle (Count)
system.cpu.numIssuedDist::1                  50645997     12.84%     95.78% # Number of insts issued each cycle (Count)
system.cpu.numIssuedDist::2                   6325650      1.60%     97.39% # Number of insts issued each cycle (Count)
system.cpu.numIssuedDist::3                   5078444      1.29%     98.68% # Number of insts issued each cycle (Count)
system.cpu.numIssuedDist::4                   4221425      1.07%     99.75% # Number of insts issued each cycle (Count)
system.cpu.numIssuedDist::5                    695561      0.18%     99.92% # Number of insts issued each cycle (Count)
system.cpu.numIssuedDist::6                    304860      0.08%    100.00% # Number of insts issued each cycle (Count)
system.cpu.numIssuedDist::7                      3119      0.00%    100.00% # Number of insts issued each cycle (Count)
system.cpu.numIssuedDist::8                       341      0.00%    100.00% # Number of insts issued each cycle (Count)
system.cpu.numIssuedDist::overflows                 0      0.00%    100.00% # Number of insts issued each cycle (Count)
system.cpu.numIssuedDist::min_value                 0                       # Number of insts issued each cycle (Count)
system.cpu.numIssuedDist::max_value                 8                       # Number of insts issued each cycle (Count)
system.cpu.numIssuedDist::total             394486308                       # Number of insts issued each cycle (Count)
system.cpu.statFuBusy::No_OpClass                   0      0.00%      0.00% # attempts to use FU when none available (Count)
system.cpu.statFuBusy::IntAlu                  218649      6.67%      6.67% # attempts to use FU when none available (Count)
system.cpu.statFuBusy::IntMult                      0      0.00%      6.67% # attempts to use FU when none available (Count)
system.cpu.statFuBusy::IntDiv                       0      0.00%      6.67% # attempts to use FU when none available (Count)
system.cpu.statFuBusy::FloatAdd                     0      0.00%      6.67% # attempts to use FU when none available (Count)
system.cpu.statFuBusy::FloatCmp                     0      0.00%      6.67% # attempts to use FU when none available (Count)
system.cpu.statFuBusy::FloatCvt                     0      0.00%      6.67% # attempts to use FU when none available (Count)
system.cpu.statFuBusy::FloatMult                    0      0.00%      6.67% # attempts to use FU when none available (Count)
system.cpu.statFuBusy::FloatMultAcc                 0      0.00%      6.67% # attempts to use FU when none available (Count)
system.cpu.statFuBusy::FloatDiv                     0      0.00%      6.67% # attempts to use FU when none available (Count)
system.cpu.statFuBusy::FloatMisc                    0      0.00%      6.67% # attempts to use FU when none available (Count)
system.cpu.statFuBusy::FloatSqrt                    0      0.00%      6.67% # attempts to use FU when none available (Count)
system.cpu.statFuBusy::SimdAdd                      0      0.00%      6.67% # attempts to use FU when none available (Count)
system.cpu.statFuBusy::SimdAddAcc                   0      0.00%      6.67% # attempts to use FU when none available (Count)
system.cpu.statFuBusy::SimdAlu                    164      0.01%      6.68% # attempts to use FU when none available (Count)
system.cpu.statFuBusy::SimdCmp                      0      0.00%      6.68% # attempts to use FU when none available (Count)
system.cpu.statFuBusy::SimdCvt                     17      0.00%      6.68% # attempts to use FU when none available (Count)
system.cpu.statFuBusy::SimdMisc                     4      0.00%      6.68% # attempts to use FU when none available (Count)
system.cpu.statFuBusy::SimdMult                     0      0.00%      6.68% # attempts to use FU when none available (Count)
system.cpu.statFuBusy::SimdMultAcc                  0      0.00%      6.68% # attempts to use FU when none available (Count)
system.cpu.statFuBusy::SimdShift                    0      0.00%      6.68% # attempts to use FU when none available (Count)
system.cpu.statFuBusy::SimdShiftAcc                 0      0.00%      6.68% # attempts to use FU when none available (Count)
system.cpu.statFuBusy::SimdDiv                      0      0.00%      6.68% # attempts to use FU when none available (Count)
system.cpu.statFuBusy::SimdSqrt                     0      0.00%      6.68% # attempts to use FU when none available (Count)
system.cpu.statFuBusy::SimdFloatAdd                 0      0.00%      6.68% # attempts to use FU when none available (Count)
system.cpu.statFuBusy::SimdFloatAlu                 0      0.00%      6.68% # attempts to use FU when none available (Count)
system.cpu.statFuBusy::SimdFloatCmp                 0      0.00%      6.68% # attempts to use FU when none available (Count)
system.cpu.statFuBusy::SimdFloatCvt                 0      0.00%      6.68% # attempts to use FU when none available (Count)
system.cpu.statFuBusy::SimdFloatDiv                 0      0.00%      6.68% # attempts to use FU when none available (Count)
system.cpu.statFuBusy::SimdFloatMisc                0      0.00%      6.68% # attempts to use FU when none available (Count)
system.cpu.statFuBusy::SimdFloatMult                0      0.00%      6.68% # attempts to use FU when none available (Count)
system.cpu.statFuBusy::SimdFloatMultAcc             0      0.00%      6.68% # attempts to use FU when none available (Count)
system.cpu.statFuBusy::SimdFloatSqrt                0      0.00%      6.68% # attempts to use FU when none available (Count)
system.cpu.statFuBusy::SimdReduceAdd                0      0.00%      6.68% # attempts to use FU when none available (Count)
system.cpu.statFuBusy::SimdReduceAlu                0      0.00%      6.68% # attempts to use FU when none available (Count)
system.cpu.statFuBusy::SimdReduceCmp                0      0.00%      6.68% # attempts to use FU when none available (Count)
system.cpu.statFuBusy::SimdFloatReduceAdd            0      0.00%      6.68% # attempts to use FU when none available (Count)
system.cpu.statFuBusy::SimdFloatReduceCmp            0      0.00%      6.68% # attempts to use FU when none available (Count)
system.cpu.statFuBusy::SimdAes                      0      0.00%      6.68% # attempts to use FU when none available (Count)
system.cpu.statFuBusy::SimdAesMix                   0      0.00%      6.68% # attempts to use FU when none available (Count)
system.cpu.statFuBusy::SimdSha1Hash                 0      0.00%      6.68% # attempts to use FU when none available (Count)
system.cpu.statFuBusy::SimdSha1Hash2                0      0.00%      6.68% # attempts to use FU when none available (Count)
system.cpu.statFuBusy::SimdSha256Hash               0      0.00%      6.68% # attempts to use FU when none available (Count)
system.cpu.statFuBusy::SimdSha256Hash2              0      0.00%      6.68% # attempts to use FU when none available (Count)
system.cpu.statFuBusy::SimdShaSigma2                0      0.00%      6.68% # attempts to use FU when none available (Count)
system.cpu.statFuBusy::SimdShaSigma3                0      0.00%      6.68% # attempts to use FU when none available (Count)
system.cpu.statFuBusy::SimdPredAlu                  0      0.00%      6.68% # attempts to use FU when none available (Count)
system.cpu.statFuBusy::MemRead                 167013      5.10%     11.77% # attempts to use FU when none available (Count)
system.cpu.statFuBusy::MemWrite                  2141      0.07%     11.84% # attempts to use FU when none available (Count)
system.cpu.statFuBusy::FloatMemRead                38      0.00%     11.84% # attempts to use FU when none available (Count)
system.cpu.statFuBusy::FloatMemWrite          2888811     88.16%    100.00% # attempts to use FU when none available (Count)
system.cpu.statFuBusy::IprAccess                    0      0.00%    100.00% # attempts to use FU when none available (Count)
system.cpu.statFuBusy::InstPrefetch                 0      0.00%    100.00% # attempts to use FU when none available (Count)
system.cpu.statIssuedInstType_0::No_OpClass          940      0.00%      0.00% # Number of instructions issued per FU type, per thread (Count)
system.cpu.statIssuedInstType_0::IntAlu      44529873     44.20%     44.20% # Number of instructions issued per FU type, per thread (Count)
system.cpu.statIssuedInstType_0::IntMult          754      0.00%     44.20% # Number of instructions issued per FU type, per thread (Count)
system.cpu.statIssuedInstType_0::IntDiv            23      0.00%     44.20% # Number of instructions issued per FU type, per thread (Count)
system.cpu.statIssuedInstType_0::FloatAdd          323      0.00%     44.20% # Number of instructions issued per FU type, per thread (Count)
system.cpu.statIssuedInstType_0::FloatCmp            0      0.00%     44.20% # Number of instructions issued per FU type, per thread (Count)
system.cpu.statIssuedInstType_0::FloatCvt            0      0.00%     44.20% # Number of instructions issued per FU type, per thread (Count)
system.cpu.statIssuedInstType_0::FloatMult            0      0.00%     44.20% # Number of instructions issued per FU type, per thread (Count)
system.cpu.statIssuedInstType_0::FloatMultAcc            0      0.00%     44.20% # Number of instructions issued per FU type, per thread (Count)
system.cpu.statIssuedInstType_0::FloatDiv            0      0.00%     44.20% # Number of instructions issued per FU type, per thread (Count)
system.cpu.statIssuedInstType_0::FloatMisc            0      0.00%     44.20% # Number of instructions issued per FU type, per thread (Count)
system.cpu.statIssuedInstType_0::FloatSqrt            0      0.00%     44.20% # Number of instructions issued per FU type, per thread (Count)
system.cpu.statIssuedInstType_0::SimdAdd            0      0.00%     44.20% # Number of instructions issued per FU type, per thread (Count)
system.cpu.statIssuedInstType_0::SimdAddAcc            0      0.00%     44.20% # Number of instructions issued per FU type, per thread (Count)
system.cpu.statIssuedInstType_0::SimdAlu         1002      0.00%     44.20% # Number of instructions issued per FU type, per thread (Count)
system.cpu.statIssuedInstType_0::SimdCmp           12      0.00%     44.20% # Number of instructions issued per FU type, per thread (Count)
system.cpu.statIssuedInstType_0::SimdCvt          835      0.00%     44.20% # Number of instructions issued per FU type, per thread (Count)
system.cpu.statIssuedInstType_0::SimdMisc         2497      0.00%     44.20% # Number of instructions issued per FU type, per thread (Count)
system.cpu.statIssuedInstType_0::SimdMult            0      0.00%     44.20% # Number of instructions issued per FU type, per thread (Count)
system.cpu.statIssuedInstType_0::SimdMultAcc            0      0.00%     44.20% # Number of instructions issued per FU type, per thread (Count)
system.cpu.statIssuedInstType_0::SimdShift            0      0.00%     44.20% # Number of instructions issued per FU type, per thread (Count)
system.cpu.statIssuedInstType_0::SimdShiftAcc            0      0.00%     44.20% # Number of instructions issued per FU type, per thread (Count)
system.cpu.statIssuedInstType_0::SimdDiv            0      0.00%     44.20% # Number of instructions issued per FU type, per thread (Count)
system.cpu.statIssuedInstType_0::SimdSqrt            0      0.00%     44.20% # Number of instructions issued per FU type, per thread (Count)
system.cpu.statIssuedInstType_0::SimdFloatAdd            0      0.00%     44.20% # Number of instructions issued per FU type, per thread (Count)
system.cpu.statIssuedInstType_0::SimdFloatAlu            0      0.00%     44.20% # Number of instructions issued per FU type, per thread (Count)
system.cpu.statIssuedInstType_0::SimdFloatCmp            0      0.00%     44.20% # Number of instructions issued per FU type, per thread (Count)
system.cpu.statIssuedInstType_0::SimdFloatCvt            1      0.00%     44.20% # Number of instructions issued per FU type, per thread (Count)
system.cpu.statIssuedInstType_0::SimdFloatDiv            0      0.00%     44.20% # Number of instructions issued per FU type, per thread (Count)
system.cpu.statIssuedInstType_0::SimdFloatMisc            0      0.00%     44.20% # Number of instructions issued per FU type, per thread (Count)
system.cpu.statIssuedInstType_0::SimdFloatMult            0      0.00%     44.20% # Number of instructions issued per FU type, per thread (Count)
system.cpu.statIssuedInstType_0::SimdFloatMultAcc            0      0.00%     44.20% # Number of instructions issued per FU type, per thread (Count)
system.cpu.statIssuedInstType_0::SimdFloatSqrt            0      0.00%     44.20% # Number of instructions issued per FU type, per thread (Count)
system.cpu.statIssuedInstType_0::SimdReduceAdd            0      0.00%     44.20% # Number of instructions issued per FU type, per thread (Count)
system.cpu.statIssuedInstType_0::SimdReduceAlu            0      0.00%     44.20% # Number of instructions issued per FU type, per thread (Count)
system.cpu.statIssuedInstType_0::SimdReduceCmp            0      0.00%     44.20% # Number of instructions issued per FU type, per thread (Count)
system.cpu.statIssuedInstType_0::SimdFloatReduceAdd            0      0.00%     44.20% # Number of instructions issued per FU type, per thread (Count)
system.cpu.statIssuedInstType_0::SimdFloatReduceCmp            0      0.00%     44.20% # Number of instructions issued per FU type, per thread (Count)
system.cpu.statIssuedInstType_0::SimdAes            0      0.00%     44.20% # Number of instructions issued per FU type, per thread (Count)
system.cpu.statIssuedInstType_0::SimdAesMix            0      0.00%     44.20% # Number of instructions issued per FU type, per thread (Count)
system.cpu.statIssuedInstType_0::SimdSha1Hash            0      0.00%     44.20% # Number of instructions issued per FU type, per thread (Count)
system.cpu.statIssuedInstType_0::SimdSha1Hash2            0      0.00%     44.20% # Number of instructions issued per FU type, per thread (Count)
system.cpu.statIssuedInstType_0::SimdSha256Hash            0      0.00%     44.20% # Number of instructions issued per FU type, per thread (Count)
system.cpu.statIssuedInstType_0::SimdSha256Hash2            0      0.00%     44.20% # Number of instructions issued per FU type, per thread (Count)
system.cpu.statIssuedInstType_0::SimdShaSigma2            0      0.00%     44.20% # Number of instructions issued per FU type, per thread (Count)
system.cpu.statIssuedInstType_0::SimdShaSigma3            0      0.00%     44.20% # Number of instructions issued per FU type, per thread (Count)
system.cpu.statIssuedInstType_0::SimdPredAlu            0      0.00%     44.20% # Number of instructions issued per FU type, per thread (Count)
system.cpu.statIssuedInstType_0::MemRead      1369011      1.36%     45.56% # Number of instructions issued per FU type, per thread (Count)
system.cpu.statIssuedInstType_0::MemWrite       205161      0.20%     45.77% # Number of instructions issued per FU type, per thread (Count)
system.cpu.statIssuedInstType_0::FloatMemRead          519      0.00%     45.77% # Number of instructions issued per FU type, per thread (Count)
system.cpu.statIssuedInstType_0::FloatMemWrite     54638904     54.23%    100.00% # Number of instructions issued per FU type, per thread (Count)
system.cpu.statIssuedInstType_0::IprAccess            0      0.00%    100.00% # Number of instructions issued per FU type, per thread (Count)
system.cpu.statIssuedInstType_0::InstPrefetch            0      0.00%    100.00% # Number of instructions issued per FU type, per thread (Count)
system.cpu.statIssuedInstType_0::total      100749855                       # Number of instructions issued per FU type, per thread (Count)
system.cpu.issueRate                         0.255381                       # Inst issue rate ((Count/Cycle))
system.cpu.fuBusy                             3276837                       # FU busy when requested (Count)
system.cpu.fuBusyRate                        0.032524                       # FU busy rate (busy events/executed inst) ((Count/Count))
system.cpu.intInstQueueReads                487085717                       # Number of integer instruction queue reads (Count)
system.cpu.intInstQueueWrites                48220191                       # Number of integer instruction queue writes (Count)
system.cpu.intInstQueueWakeupAccesses        46092501                       # Number of integer instruction queue wakeup accesses (Count)
system.cpu.fpInstQueueReads                 112178550                       # Number of floating instruction queue reads (Count)
system.cpu.fpInstQueueWrites                 57464773                       # Number of floating instruction queue writes (Count)
system.cpu.fpInstQueueWakeupAccesses         51834989                       # Number of floating instruction queue wakeup accesses (Count)
system.cpu.vecInstQueueReads                        0                       # Number of vector instruction queue reads (Count)
system.cpu.vecInstQueueWrites                       0                       # Number of vector instruction queue writes (Count)
system.cpu.vecInstQueueWakeupAccesses               0                       # Number of vector instruction queue wakeup accesses (Count)
system.cpu.intAluAccesses                    46491995                       # Number of integer alu accesses (Count)
system.cpu.fpAluAccesses                     57533757                       # Number of floating point alu accesses (Count)
system.cpu.vecAluAccesses                           0                       # Number of vector alu accesses (Count)
system.cpu.numInsts                         100739625                       # Number of executed instructions (Count)
system.cpu.numLoadInsts                       1365438                       # Number of load instructions executed (Count)
system.cpu.numSquashedInsts                     10228                       # Number of squashed instructions skipped in execute (Count)
system.cpu.numSwp                                   0                       # Number of swp insts executed (Count)
system.cpu.numNop                                   0                       # Number of nop insts executed (Count)
system.cpu.numRefs                           56207934                       # Number of memory reference insts executed (Count)
system.cpu.numBranches                        6858700                       # Number of branches executed (Count)
system.cpu.numStoreInsts                     54842496                       # Number of stores executed (Count)
system.cpu.numRate                           0.255355                       # Inst execution rate ((Count/Cycle))
system.cpu.timesIdled                             463                       # Number of times that the entire CPU went into an idle state and unscheduled itself (Count)
system.cpu.idleCycles                           22459                       # Total number of cycles that the CPU has spent unscheduled due to idling (Cycle)
system.cpu.committedInsts                    50000000                       # Number of Instructions Simulated (Count)
system.cpu.committedOps                      95981340                       # Number of Ops (including micro ops) Simulated (Count)
system.cpu.cpi                               7.890175                       # CPI: Cycles Per Instruction ((Cycle/Count))
system.cpu.totalCpi                          7.890175                       # CPI: Total CPI of All Threads ((Cycle/Count))
system.cpu.ipc                               0.126740                       # IPC: Instructions Per Cycle ((Count/Cycle))
system.cpu.totalIpc                          0.126740                       # IPC: Total IPC of All Threads ((Count/Cycle))
system.cpu.intRegfileReads                  104432363                       # Number of integer regfile reads (Count)
system.cpu.intRegfileWrites                  32077954                       # Number of integer regfile writes (Count)
system.cpu.fpRegfileReads                    54649310                       # Number of floating regfile reads (Count)
system.cpu.fpRegfileWrites                       5264                       # Number of floating regfile writes (Count)
system.cpu.ccRegfileReads                    36057516                       # number of cc regfile reads (Count)
system.cpu.ccRegfileWrites                   30555586                       # number of cc regfile writes (Count)
system.cpu.miscRegfileReads                  69945811                       # number of misc regfile reads (Count)
system.cpu.MemDepUnit__0.insertedLoads        1385261                       # Number of loads inserted to the mem dependence unit. (Count)
system.cpu.MemDepUnit__0.insertedStores      54855160                       # Number of stores inserted to the mem dependence unit. (Count)
system.cpu.MemDepUnit__0.conflictingLoads       220855                       # Number of conflicting loads. (Count)
system.cpu.MemDepUnit__0.conflictingStores        58510                       # Number of conflicting stores. (Count)
system.cpu.MemDepUnit__1.insertedLoads              0                       # Number of loads inserted to the mem dependence unit. (Count)
system.cpu.MemDepUnit__1.insertedStores             0                       # Number of stores inserted to the mem dependence unit. (Count)
system.cpu.MemDepUnit__1.conflictingLoads            0                       # Number of conflicting loads. (Count)
system.cpu.MemDepUnit__1.conflictingStores            0                       # Number of conflicting stores. (Count)
system.cpu.MemDepUnit__2.insertedLoads              0                       # Number of loads inserted to the mem dependence unit. (Count)
system.cpu.MemDepUnit__2.insertedStores             0                       # Number of stores inserted to the mem dependence unit. (Count)
system.cpu.MemDepUnit__2.conflictingLoads            0                       # Number of conflicting loads. (Count)
system.cpu.MemDepUnit__2.conflictingStores            0                       # Number of conflicting stores. (Count)
system.cpu.MemDepUnit__3.insertedLoads              0                       # Number of loads inserted to the mem dependence unit. (Count)
system.cpu.MemDepUnit__3.insertedStores             0                       # Number of stores inserted to the mem dependence unit. (Count)
system.cpu.MemDepUnit__3.conflictingLoads            0                       # Number of conflicting loads. (Count)
system.cpu.MemDepUnit__3.conflictingStores            0                       # Number of conflicting stores. (Count)
system.cpu.branchPred.lookups                 7008001                       # Number of BP lookups (Count)
system.cpu.branchPred.condPredicted           6989496                       # Number of conditional branches predicted (Count)
system.cpu.branchPred.condIncorrect              3565                       # Number of conditional branches incorrect (Count)
system.cpu.branchPred.BTBLookups              6980835                       # Number of BTB lookups (Count)
system.cpu.branchPred.BTBHits                 6978175                       # Number of BTB hits (Count)
system.cpu.branchPred.BTBHitRatio            0.999619                       # BTB Hit Ratio (Ratio)
system.cpu.branchPred.RASUsed                    5884                       # Number of times the RAS was used to get a target. (Count)
system.cpu.branchPred.RASIncorrect                  8                       # Number of incorrect RAS predictions. (Count)
system.cpu.branchPred.indirectLookups            1174                       # Number of indirect predictor lookups. (Count)
system.cpu.branchPred.indirectHits                735                       # Number of indirect target hits. (Count)
system.cpu.branchPred.indirectMisses              439                       # Number of indirect misses. (Count)
system.cpu.branchPred.indirectMispredicted          177                       # Number of mispredicted indirect branches. (Count)
system.cpu.commit.commitSquashedInsts         4887371                       # The number of squashed insts skipped by commit (Count)
system.cpu.commit.commitNonSpecStalls              48                       # The number of times commit has been forced to stall to communicate backwards (Count)
system.cpu.commit.branchMispredicts              2693                       # The number of times a branch was mispredicted (Count)
system.cpu.commit.numCommittedDist::samples    393842907                       # Number of insts commited each cycle (Count)
system.cpu.commit.numCommittedDist::mean     0.243705                       # Number of insts commited each cycle (Count)
system.cpu.commit.numCommittedDist::stdev     0.739375                       # Number of insts commited each cycle (Count)
system.cpu.commit.numCommittedDist::underflows            0      0.00%      0.00% # Number of insts commited each cycle (Count)
system.cpu.commit.numCommittedDist::0       332684605     84.47%     84.47% # Number of insts commited each cycle (Count)
system.cpu.commit.numCommittedDist::1        44846583     11.39%     95.86% # Number of insts commited each cycle (Count)
system.cpu.commit.numCommittedDist::2         3983778      1.01%     96.87% # Number of insts commited each cycle (Count)
system.cpu.commit.numCommittedDist::3        10927574      2.77%     99.64% # Number of insts commited each cycle (Count)
system.cpu.commit.numCommittedDist::4          172676      0.04%     99.69% # Number of insts commited each cycle (Count)
system.cpu.commit.numCommittedDist::5           23521      0.01%     99.69% # Number of insts commited each cycle (Count)
system.cpu.commit.numCommittedDist::6            2705      0.00%     99.69% # Number of insts commited each cycle (Count)
system.cpu.commit.numCommittedDist::7           51780      0.01%     99.71% # Number of insts commited each cycle (Count)
system.cpu.commit.numCommittedDist::8         1149685      0.29%    100.00% # Number of insts commited each cycle (Count)
system.cpu.commit.numCommittedDist::overflows            0      0.00%    100.00% # Number of insts commited each cycle (Count)
system.cpu.commit.numCommittedDist::min_value            0                       # Number of insts commited each cycle (Count)
system.cpu.commit.numCommittedDist::max_value            8                       # Number of insts commited each cycle (Count)
system.cpu.commit.numCommittedDist::total    393842907                       # Number of insts commited each cycle (Count)
system.cpu.commit.instsCommitted             50000000                       # Number of instructions committed (Count)
system.cpu.commit.opsCommitted               95981340                       # Number of ops (including micro ops) committed (Count)
system.cpu.commit.memRefs                    53378545                       # Number of memory references committed (Count)
system.cpu.commit.loads                       1350127                       # Number of loads committed (Count)
system.cpu.commit.amos                              0                       # Number of atomic instructions committed (Count)
system.cpu.commit.membars                          32                       # Number of memory barriers committed (Count)
system.cpu.commit.branches                    6543968                       # Number of branches committed (Count)
system.cpu.commit.vectorInstructions                0                       # Number of committed Vector instructions. (Count)
system.cpu.commit.floating                   51833437                       # Number of committed floating point instructions. (Count)
system.cpu.commit.integer                    95975912                       # Number of committed integer instructions. (Count)
system.cpu.commit.functionCalls                  3805                       # Number of function calls committed. (Count)
system.cpu.commit.committedInstType_0::No_OpClass          552      0.00%      0.00% # Class of committed instruction (Count)
system.cpu.commit.committedInstType_0::IntAlu     42597873     44.38%     44.38% # Class of committed instruction (Count)
system.cpu.commit.committedInstType_0::IntMult          725      0.00%     44.38% # Class of committed instruction (Count)
system.cpu.commit.committedInstType_0::IntDiv           21      0.00%     44.38% # Class of committed instruction (Count)
system.cpu.commit.committedInstType_0::FloatAdd          199      0.00%     44.38% # Class of committed instruction (Count)
system.cpu.commit.committedInstType_0::FloatCmp            0      0.00%     44.38% # Class of committed instruction (Count)
system.cpu.commit.committedInstType_0::FloatCvt            0      0.00%     44.38% # Class of committed instruction (Count)
system.cpu.commit.committedInstType_0::FloatMult            0      0.00%     44.38% # Class of committed instruction (Count)
system.cpu.commit.committedInstType_0::FloatMultAcc            0      0.00%     44.38% # Class of committed instruction (Count)
system.cpu.commit.committedInstType_0::FloatDiv            0      0.00%     44.38% # Class of committed instruction (Count)
system.cpu.commit.committedInstType_0::FloatMisc            0      0.00%     44.38% # Class of committed instruction (Count)
system.cpu.commit.committedInstType_0::FloatSqrt            0      0.00%     44.38% # Class of committed instruction (Count)
system.cpu.commit.committedInstType_0::SimdAdd            0      0.00%     44.38% # Class of committed instruction (Count)
system.cpu.commit.committedInstType_0::SimdAddAcc            0      0.00%     44.38% # Class of committed instruction (Count)
system.cpu.commit.committedInstType_0::SimdAlu          786      0.00%     44.38% # Class of committed instruction (Count)
system.cpu.commit.committedInstType_0::SimdCmp           12      0.00%     44.38% # Class of committed instruction (Count)
system.cpu.commit.committedInstType_0::SimdCvt          788      0.00%     44.38% # Class of committed instruction (Count)
system.cpu.commit.committedInstType_0::SimdMisc         1839      0.00%     44.39% # Class of committed instruction (Count)
system.cpu.commit.committedInstType_0::SimdMult            0      0.00%     44.39% # Class of committed instruction (Count)
system.cpu.commit.committedInstType_0::SimdMultAcc            0      0.00%     44.39% # Class of committed instruction (Count)
system.cpu.commit.committedInstType_0::SimdShift            0      0.00%     44.39% # Class of committed instruction (Count)
system.cpu.commit.committedInstType_0::SimdShiftAcc            0      0.00%     44.39% # Class of committed instruction (Count)
system.cpu.commit.committedInstType_0::SimdDiv            0      0.00%     44.39% # Class of committed instruction (Count)
system.cpu.commit.committedInstType_0::SimdSqrt            0      0.00%     44.39% # Class of committed instruction (Count)
system.cpu.commit.committedInstType_0::SimdFloatAdd            0      0.00%     44.39% # Class of committed instruction (Count)
system.cpu.commit.committedInstType_0::SimdFloatAlu            0      0.00%     44.39% # Class of committed instruction (Count)
system.cpu.commit.committedInstType_0::SimdFloatCmp            0      0.00%     44.39% # Class of committed instruction (Count)
system.cpu.commit.committedInstType_0::SimdFloatCvt            0      0.00%     44.39% # Class of committed instruction (Count)
system.cpu.commit.committedInstType_0::SimdFloatDiv            0      0.00%     44.39% # Class of committed instruction (Count)
system.cpu.commit.committedInstType_0::SimdFloatMisc            0      0.00%     44.39% # Class of committed instruction (Count)
system.cpu.commit.committedInstType_0::SimdFloatMult            0      0.00%     44.39% # Class of committed instruction (Count)
system.cpu.commit.committedInstType_0::SimdFloatMultAcc            0      0.00%     44.39% # Class of committed instruction (Count)
system.cpu.commit.committedInstType_0::SimdFloatSqrt            0      0.00%     44.39% # Class of committed instruction (Count)
system.cpu.commit.committedInstType_0::SimdReduceAdd            0      0.00%     44.39% # Class of committed instruction (Count)
system.cpu.commit.committedInstType_0::SimdReduceAlu            0      0.00%     44.39% # Class of committed instruction (Count)
system.cpu.commit.committedInstType_0::SimdReduceCmp            0      0.00%     44.39% # Class of committed instruction (Count)
system.cpu.commit.committedInstType_0::SimdFloatReduceAdd            0      0.00%     44.39% # Class of committed instruction (Count)
system.cpu.commit.committedInstType_0::SimdFloatReduceCmp            0      0.00%     44.39% # Class of committed instruction (Count)
system.cpu.commit.committedInstType_0::SimdAes            0      0.00%     44.39% # Class of committed instruction (Count)
system.cpu.commit.committedInstType_0::SimdAesMix            0      0.00%     44.39% # Class of committed instruction (Count)
system.cpu.commit.committedInstType_0::SimdSha1Hash            0      0.00%     44.39% # Class of committed instruction (Count)
system.cpu.commit.committedInstType_0::SimdSha1Hash2            0      0.00%     44.39% # Class of committed instruction (Count)
system.cpu.commit.committedInstType_0::SimdSha256Hash            0      0.00%     44.39% # Class of committed instruction (Count)
system.cpu.commit.committedInstType_0::SimdSha256Hash2            0      0.00%     44.39% # Class of committed instruction (Count)
system.cpu.commit.committedInstType_0::SimdShaSigma2            0      0.00%     44.39% # Class of committed instruction (Count)
system.cpu.commit.committedInstType_0::SimdShaSigma3            0      0.00%     44.39% # Class of committed instruction (Count)
system.cpu.commit.committedInstType_0::SimdPredAlu            0      0.00%     44.39% # Class of committed instruction (Count)
system.cpu.commit.committedInstType_0::MemRead      1349679      1.41%     45.79% # Class of committed instruction (Count)
system.cpu.commit.committedInstType_0::MemWrite       199602      0.21%     46.00% # Class of committed instruction (Count)
system.cpu.commit.committedInstType_0::FloatMemRead          448      0.00%     46.00% # Class of committed instruction (Count)
system.cpu.commit.committedInstType_0::FloatMemWrite     51828816     54.00%    100.00% # Class of committed instruction (Count)
system.cpu.commit.committedInstType_0::IprAccess            0      0.00%    100.00% # Class of committed instruction (Count)
system.cpu.commit.committedInstType_0::InstPrefetch            0      0.00%    100.00% # Class of committed instruction (Count)
system.cpu.commit.committedInstType_0::total     95981340                       # Class of committed instruction (Count)
system.cpu.commit.commitEligibleSamples       1149685                       # number cycles where commit BW limit reached (Cycle)
system.cpu.dcache.demandHits::cpu.data       49873692                       # number of demand (read+write) hits (Count)
system.cpu.dcache.demandHits::total          49873692                       # number of demand (read+write) hits (Count)
system.cpu.dcache.overallHits::cpu.data      49873692                       # number of overall hits (Count)
system.cpu.dcache.overallHits::total         49873692                       # number of overall hits (Count)
system.cpu.dcache.demandMisses::cpu.data      3247717                       # number of demand (read+write) misses (Count)
system.cpu.dcache.demandMisses::total         3247717                       # number of demand (read+write) misses (Count)
system.cpu.dcache.overallMisses::cpu.data      3247717                       # number of overall misses (Count)
system.cpu.dcache.overallMisses::total        3247717                       # number of overall misses (Count)
system.cpu.dcache.demandMissLatency::cpu.data 293544807000                       # number of demand (read+write) miss ticks (Tick)
system.cpu.dcache.demandMissLatency::total 293544807000                       # number of demand (read+write) miss ticks (Tick)
system.cpu.dcache.overallMissLatency::cpu.data 293544807000                       # number of overall miss ticks (Tick)
system.cpu.dcache.overallMissLatency::total 293544807000                       # number of overall miss ticks (Tick)
system.cpu.dcache.demandAccesses::cpu.data     53121409                       # number of demand (read+write) accesses (Count)
system.cpu.dcache.demandAccesses::total      53121409                       # number of demand (read+write) accesses (Count)
system.cpu.dcache.overallAccesses::cpu.data     53121409                       # number of overall (read+write) accesses (Count)
system.cpu.dcache.overallAccesses::total     53121409                       # number of overall (read+write) accesses (Count)
system.cpu.dcache.demandMissRate::cpu.data     0.061138                       # miss rate for demand accesses (Ratio)
system.cpu.dcache.demandMissRate::total      0.061138                       # miss rate for demand accesses (Ratio)
system.cpu.dcache.overallMissRate::cpu.data     0.061138                       # miss rate for overall accesses (Ratio)
system.cpu.dcache.overallMissRate::total     0.061138                       # miss rate for overall accesses (Ratio)
system.cpu.dcache.demandAvgMissLatency::cpu.data 90384.971043                       # average overall miss latency in ticks ((Tick/Count))
system.cpu.dcache.demandAvgMissLatency::total 90384.971043                       # average overall miss latency in ticks ((Tick/Count))
system.cpu.dcache.overallAvgMissLatency::cpu.data 90384.971043                       # average overall miss latency ((Tick/Count))
system.cpu.dcache.overallAvgMissLatency::total 90384.971043                       # average overall miss latency ((Tick/Count))
system.cpu.dcache.blockedCycles::no_mshrs         1579                       # number of cycles access was blocked (Cycle)
system.cpu.dcache.blockedCycles::no_targets            0                       # number of cycles access was blocked (Cycle)
system.cpu.dcache.blockedCauses::no_mshrs           45                       # number of times access was blocked (Count)
system.cpu.dcache.blockedCauses::no_targets            0                       # number of times access was blocked (Count)
system.cpu.dcache.avgBlocked::no_mshrs      35.088889                       # average number of cycles each access was blocked ((Cycle/Count))
system.cpu.dcache.avgBlocked::no_targets          nan                       # average number of cycles each access was blocked ((Cycle/Count))
system.cpu.dcache.writebacks::writebacks      6480625                       # number of writebacks (Count)
system.cpu.dcache.writebacks::total           6480625                       # number of writebacks (Count)
system.cpu.dcache.demandMshrHits::cpu.data        12449                       # number of demand (read+write) MSHR hits (Count)
system.cpu.dcache.demandMshrHits::total         12449                       # number of demand (read+write) MSHR hits (Count)
system.cpu.dcache.overallMshrHits::cpu.data        12449                       # number of overall MSHR hits (Count)
system.cpu.dcache.overallMshrHits::total        12449                       # number of overall MSHR hits (Count)
system.cpu.dcache.demandMshrMisses::cpu.data      3235268                       # number of demand (read+write) MSHR misses (Count)
system.cpu.dcache.demandMshrMisses::total      3235268                       # number of demand (read+write) MSHR misses (Count)
system.cpu.dcache.overallMshrMisses::cpu.data      3235268                       # number of overall MSHR misses (Count)
system.cpu.dcache.overallMshrMisses::cpu.dcache.prefetcher      3246724                       # number of overall MSHR misses (Count)
system.cpu.dcache.overallMshrMisses::total      6481992                       # number of overall MSHR misses (Count)
system.cpu.dcache.demandMshrMissLatency::cpu.data 289567817000                       # number of demand (read+write) MSHR miss ticks (Tick)
system.cpu.dcache.demandMshrMissLatency::total 289567817000                       # number of demand (read+write) MSHR miss ticks (Tick)
system.cpu.dcache.overallMshrMissLatency::cpu.data 289567817000                       # number of overall MSHR miss ticks (Tick)
system.cpu.dcache.overallMshrMissLatency::cpu.dcache.prefetcher 296697199200                       # number of overall MSHR miss ticks (Tick)
system.cpu.dcache.overallMshrMissLatency::total 586265016200                       # number of overall MSHR miss ticks (Tick)
system.cpu.dcache.demandMshrMissRate::cpu.data     0.060903                       # mshr miss ratio for demand accesses (Ratio)
system.cpu.dcache.demandMshrMissRate::total     0.060903                       # mshr miss ratio for demand accesses (Ratio)
system.cpu.dcache.overallMshrMissRate::cpu.data     0.060903                       # mshr miss ratio for overall accesses (Ratio)
system.cpu.dcache.overallMshrMissRate::cpu.dcache.prefetcher          inf                       # mshr miss ratio for overall accesses (Ratio)
system.cpu.dcache.overallMshrMissRate::total     0.122022                       # mshr miss ratio for overall accesses (Ratio)
system.cpu.dcache.demandAvgMshrMissLatency::cpu.data 89503.502337                       # average overall mshr miss latency ((Tick/Count))
system.cpu.dcache.demandAvgMshrMissLatency::total 89503.502337                       # average overall mshr miss latency ((Tick/Count))
system.cpu.dcache.overallAvgMshrMissLatency::cpu.data 89503.502337                       # average overall mshr miss latency ((Tick/Count))
system.cpu.dcache.overallAvgMshrMissLatency::cpu.dcache.prefetcher 91383.560537                       # average overall mshr miss latency ((Tick/Count))
system.cpu.dcache.overallAvgMshrMissLatency::total 90445.192805                       # average overall mshr miss latency ((Tick/Count))
system.cpu.dcache.replacements                6480967                       # number of replacements (Count)
system.cpu.dcache.HardPFReq.mshrMisses::cpu.dcache.prefetcher      3246724                       # number of HardPFReq MSHR misses (Count)
system.cpu.dcache.HardPFReq.mshrMisses::total      3246724                       # number of HardPFReq MSHR misses (Count)
system.cpu.dcache.HardPFReq.mshrMissLatency::cpu.dcache.prefetcher 296697199200                       # number of HardPFReq MSHR miss ticks (Tick)
system.cpu.dcache.HardPFReq.mshrMissLatency::total 296697199200                       # number of HardPFReq MSHR miss ticks (Tick)
system.cpu.dcache.HardPFReq.mshrMissRate::cpu.dcache.prefetcher          inf                       # mshr miss rate for HardPFReq accesses (Ratio)
system.cpu.dcache.HardPFReq.mshrMissRate::total          inf                       # mshr miss rate for HardPFReq accesses (Ratio)
system.cpu.dcache.HardPFReq.avgMshrMissLatency::cpu.dcache.prefetcher 91383.560537                       # average HardPFReq mshr miss latency ((Tick/Count))
system.cpu.dcache.HardPFReq.avgMshrMissLatency::total 91383.560537                       # average HardPFReq mshr miss latency ((Tick/Count))
system.cpu.dcache.LockedRMWReadReq.hits::cpu.data           16                       # number of LockedRMWReadReq hits (Count)
system.cpu.dcache.LockedRMWReadReq.hits::total           16                       # number of LockedRMWReadReq hits (Count)
system.cpu.dcache.LockedRMWReadReq.accesses::cpu.data           16                       # number of LockedRMWReadReq accesses(hits+misses) (Count)
system.cpu.dcache.LockedRMWReadReq.accesses::total           16                       # number of LockedRMWReadReq accesses(hits+misses) (Count)
system.cpu.dcache.LockedRMWReadReq.mshrMissLatency::cpu.data       217000                       # number of LockedRMWReadReq MSHR miss ticks (Tick)
system.cpu.dcache.LockedRMWReadReq.mshrMissLatency::total       217000                       # number of LockedRMWReadReq MSHR miss ticks (Tick)
system.cpu.dcache.LockedRMWReadReq.avgMshrMissLatency::cpu.data          inf                       # average LockedRMWReadReq mshr miss latency ((Tick/Count))
system.cpu.dcache.LockedRMWReadReq.avgMshrMissLatency::total          inf                       # average LockedRMWReadReq mshr miss latency ((Tick/Count))
system.cpu.dcache.LockedRMWWriteReq.hits::cpu.data           16                       # number of LockedRMWWriteReq hits (Count)
system.cpu.dcache.LockedRMWWriteReq.hits::total           16                       # number of LockedRMWWriteReq hits (Count)
system.cpu.dcache.LockedRMWWriteReq.accesses::cpu.data           16                       # number of LockedRMWWriteReq accesses(hits+misses) (Count)
system.cpu.dcache.LockedRMWWriteReq.accesses::total           16                       # number of LockedRMWWriteReq accesses(hits+misses) (Count)
system.cpu.dcache.ReadReq.hits::cpu.data      1092408                       # number of ReadReq hits (Count)
system.cpu.dcache.ReadReq.hits::total         1092408                       # number of ReadReq hits (Count)
system.cpu.dcache.ReadReq.misses::cpu.data          722                       # number of ReadReq misses (Count)
system.cpu.dcache.ReadReq.misses::total           722                       # number of ReadReq misses (Count)
system.cpu.dcache.ReadReq.missLatency::cpu.data     54921000                       # number of ReadReq miss ticks (Tick)
system.cpu.dcache.ReadReq.missLatency::total     54921000                       # number of ReadReq miss ticks (Tick)
system.cpu.dcache.ReadReq.accesses::cpu.data      1093130                       # number of ReadReq accesses(hits+misses) (Count)
system.cpu.dcache.ReadReq.accesses::total      1093130                       # number of ReadReq accesses(hits+misses) (Count)
system.cpu.dcache.ReadReq.missRate::cpu.data     0.000660                       # miss rate for ReadReq accesses (Ratio)
system.cpu.dcache.ReadReq.missRate::total     0.000660                       # miss rate for ReadReq accesses (Ratio)
system.cpu.dcache.ReadReq.avgMissLatency::cpu.data 76067.867036                       # average ReadReq miss latency ((Tick/Count))
system.cpu.dcache.ReadReq.avgMissLatency::total 76067.867036                       # average ReadReq miss latency ((Tick/Count))
system.cpu.dcache.ReadReq.mshrHits::cpu.data          346                       # number of ReadReq MSHR hits (Count)
system.cpu.dcache.ReadReq.mshrHits::total          346                       # number of ReadReq MSHR hits (Count)
system.cpu.dcache.ReadReq.mshrMisses::cpu.data          376                       # number of ReadReq MSHR misses (Count)
system.cpu.dcache.ReadReq.mshrMisses::total          376                       # number of ReadReq MSHR misses (Count)
system.cpu.dcache.ReadReq.mshrMissLatency::cpu.data     33474000                       # number of ReadReq MSHR miss ticks (Tick)
system.cpu.dcache.ReadReq.mshrMissLatency::total     33474000                       # number of ReadReq MSHR miss ticks (Tick)
system.cpu.dcache.ReadReq.mshrMissRate::cpu.data     0.000344                       # mshr miss rate for ReadReq accesses (Ratio)
system.cpu.dcache.ReadReq.mshrMissRate::total     0.000344                       # mshr miss rate for ReadReq accesses (Ratio)
system.cpu.dcache.ReadReq.avgMshrMissLatency::cpu.data 89026.595745                       # average ReadReq mshr miss latency ((Tick/Count))
system.cpu.dcache.ReadReq.avgMshrMissLatency::total 89026.595745                       # average ReadReq mshr miss latency ((Tick/Count))
system.cpu.dcache.WriteReq.hits::cpu.data     48781284                       # number of WriteReq hits (Count)
system.cpu.dcache.WriteReq.hits::total       48781284                       # number of WriteReq hits (Count)
system.cpu.dcache.WriteReq.misses::cpu.data      3246995                       # number of WriteReq misses (Count)
system.cpu.dcache.WriteReq.misses::total      3246995                       # number of WriteReq misses (Count)
system.cpu.dcache.WriteReq.missLatency::cpu.data 293489886000                       # number of WriteReq miss ticks (Tick)
system.cpu.dcache.WriteReq.missLatency::total 293489886000                       # number of WriteReq miss ticks (Tick)
system.cpu.dcache.WriteReq.accesses::cpu.data     52028279                       # number of WriteReq accesses(hits+misses) (Count)
system.cpu.dcache.WriteReq.accesses::total     52028279                       # number of WriteReq accesses(hits+misses) (Count)
system.cpu.dcache.WriteReq.missRate::cpu.data     0.062408                       # miss rate for WriteReq accesses (Ratio)
system.cpu.dcache.WriteReq.missRate::total     0.062408                       # miss rate for WriteReq accesses (Ratio)
system.cpu.dcache.WriteReq.avgMissLatency::cpu.data 90388.154586                       # average WriteReq miss latency ((Tick/Count))
system.cpu.dcache.WriteReq.avgMissLatency::total 90388.154586                       # average WriteReq miss latency ((Tick/Count))
system.cpu.dcache.WriteReq.mshrHits::cpu.data        12103                       # number of WriteReq MSHR hits (Count)
system.cpu.dcache.WriteReq.mshrHits::total        12103                       # number of WriteReq MSHR hits (Count)
system.cpu.dcache.WriteReq.mshrMisses::cpu.data      3234892                       # number of WriteReq MSHR misses (Count)
system.cpu.dcache.WriteReq.mshrMisses::total      3234892                       # number of WriteReq MSHR misses (Count)
system.cpu.dcache.WriteReq.mshrMissLatency::cpu.data 289534343000                       # number of WriteReq MSHR miss ticks (Tick)
system.cpu.dcache.WriteReq.mshrMissLatency::total 289534343000                       # number of WriteReq MSHR miss ticks (Tick)
system.cpu.dcache.WriteReq.mshrMissRate::cpu.data     0.062176                       # mshr miss rate for WriteReq accesses (Ratio)
system.cpu.dcache.WriteReq.mshrMissRate::total     0.062176                       # mshr miss rate for WriteReq accesses (Ratio)
system.cpu.dcache.WriteReq.avgMshrMissLatency::cpu.data 89503.557769                       # average WriteReq mshr miss latency ((Tick/Count))
system.cpu.dcache.WriteReq.avgMshrMissLatency::total 89503.557769                       # average WriteReq mshr miss latency ((Tick/Count))
system.cpu.dcache.power_state.pwrStateResidencyTicks::UNDEFINED 394508760000                       # Cumulative time (in ticks) in various power states (Tick)
system.cpu.dcache.prefetcher.demandMshrMisses      3235268                       # demands not covered by prefetchs (Count)
system.cpu.dcache.prefetcher.pfIssued         3253303                       # number of hwpf issued (Count)
system.cpu.dcache.prefetcher.pfUnused              59                       # number of HardPF blocks evicted w/o reference (Count)
system.cpu.dcache.prefetcher.pfUseful         3234568                       # number of useful prefetch (Count)
system.cpu.dcache.prefetcher.pfUsefulButMiss            0                       # number of hit on prefetch but cache block is not in an usable state (Count)
system.cpu.dcache.prefetcher.accuracy        0.994241                       # accuracy of the prefetcher (Count)
system.cpu.dcache.prefetcher.coverage        0.499946                       # coverage brought by this prefetcher (Count)
system.cpu.dcache.prefetcher.pfHitInCache         6576                       # number of prefetches hitting in cache (Count)
system.cpu.dcache.prefetcher.pfHitInMSHR            3                       # number of prefetches hitting in a MSHR (Count)
system.cpu.dcache.prefetcher.pfHitInWB              0                       # number of prefetches hit in the Write Buffer (Count)
system.cpu.dcache.prefetcher.pfLate              6579                       # number of late prefetches (hitting in cache, MSHR or WB) (Count)
system.cpu.dcache.prefetcher.pfIdentified      3258768                       # number of prefetch candidates identified (Count)
system.cpu.dcache.prefetcher.pfBufferHit         3420                       # number of redundant prefetches already in prefetch queue (Count)
system.cpu.dcache.prefetcher.pfInCache              0                       # number of redundant prefetches already in cache/mshr dropped (Count)
system.cpu.dcache.prefetcher.pfRemovedDemand           37                       # number of prefetches dropped due to a demand for the same address (Count)
system.cpu.dcache.prefetcher.pfRemovedFull            0                       # number of prefetches dropped due to prefetch queue size (Count)
system.cpu.dcache.prefetcher.pfSpanPage          9348                       # number of prefetches that crossed the page (Count)
system.cpu.dcache.prefetcher.pfUsefulSpanPage            0                       # number of prefetches that is useful and crossed the page (Count)
system.cpu.dcache.prefetcher.power_state.pwrStateResidencyTicks::UNDEFINED 394508760000                       # Cumulative time (in ticks) in various power states (Tick)
system.cpu.dcache.tags.tagsInUse          1023.557086                       # Average ticks per tags in use ((Tick/Count))
system.cpu.dcache.tags.totalRefs             56355715                       # Total number of references to valid blocks. (Count)
system.cpu.dcache.tags.sampledRefs            6481991                       # Sample count of references to valid blocks. (Count)
system.cpu.dcache.tags.avgRefs               8.694198                       # Average number of references to valid blocks. ((Count/Count))
system.cpu.dcache.tags.warmupTick              185000                       # The tick when the warmup percentage was hit. (Tick)
system.cpu.dcache.tags.occupancies::cpu.data   511.577720                       # Average occupied blocks per tick, per requestor ((Count/Tick))
system.cpu.dcache.tags.occupancies::cpu.dcache.prefetcher   511.979366                       # Average occupied blocks per tick, per requestor ((Count/Tick))
system.cpu.dcache.tags.avgOccs::cpu.data     0.499588                       # Average percentage of cache occupancy ((Ratio/Tick))
system.cpu.dcache.tags.avgOccs::cpu.dcache.prefetcher     0.499980                       # Average percentage of cache occupancy ((Ratio/Tick))
system.cpu.dcache.tags.avgOccs::total        0.999567                       # Average percentage of cache occupancy ((Ratio/Tick))
system.cpu.dcache.tags.occupanciesTaskId::1022          512                       # Occupied blocks per task id (Count)
system.cpu.dcache.tags.occupanciesTaskId::1024          512                       # Occupied blocks per task id (Count)
system.cpu.dcache.tags.ageTaskId_1022::0           84                       # Occupied blocks per task id, per block age (Count)
system.cpu.dcache.tags.ageTaskId_1022::1          428                       # Occupied blocks per task id, per block age (Count)
system.cpu.dcache.tags.ageTaskId_1024::0           83                       # Occupied blocks per task id, per block age (Count)
system.cpu.dcache.tags.ageTaskId_1024::1          429                       # Occupied blocks per task id, per block age (Count)
system.cpu.dcache.tags.ratioOccsTaskId::1022     0.500000                       # Ratio of occupied blocks and all blocks, per task id (Ratio)
system.cpu.dcache.tags.ratioOccsTaskId::1024     0.500000                       # Ratio of occupied blocks and all blocks, per task id (Ratio)
system.cpu.dcache.tags.tagAccesses          218967755                       # Number of tag accesses (Count)
system.cpu.dcache.tags.dataAccesses         218967755                       # Number of data accesses (Count)
system.cpu.dcache.tags.power_state.pwrStateResidencyTicks::UNDEFINED 394508760000                       # Cumulative time (in ticks) in various power states (Tick)
system.cpu.decode.idleCycles                  4151359                       # Number of cycles decode is idle (Cycle)
system.cpu.decode.blockedCycles             377636333                       # Number of cycles decode is blocked (Cycle)
system.cpu.decode.runCycles                    818319                       # Number of cycles decode is running (Cycle)
system.cpu.decode.unblockCycles              11832956                       # Number of cycles decode is unblocking (Cycle)
system.cpu.decode.squashCycles                  47341                       # Number of cycles decode is squashing (Cycle)
system.cpu.decode.branchResolved              6845287                       # Number of times decode resolved a branch (Count)
system.cpu.decode.branchMispred                   938                       # Number of times decode detected a branch misprediction (Count)
system.cpu.decode.decodedInsts              101039305                       # Number of instructions handled by decode (Count)
system.cpu.decode.squashedInsts                  4292                       # Number of squashed instructions handled by decode (Count)
system.cpu.fetch.icacheStallCycles             337060                       # Number of cycles fetch is stalled on an Icache miss (Cycle)
system.cpu.fetch.insts                       53461845                       # Number of instructions fetch has processed (Count)
system.cpu.fetch.branches                     7008001                       # Number of branches that fetch encountered (Count)
system.cpu.fetch.predictedBranches            6984794                       # Number of branches that fetch has predicted taken (Count)
system.cpu.fetch.cycles                     394100522                       # Number of cycles fetch has run and was not squashing or blocked (Cycle)
system.cpu.fetch.squashCycles                   96512                       # Number of cycles fetch has spent squashing (Cycle)
system.cpu.fetch.miscStallCycles                   53                       # Number of cycles fetch has spent waiting on interrupts, or bad addresses, or out of MSHRs (Cycle)
system.cpu.fetch.pendingTrapStallCycles           405                       # Number of stall cycles due to pending traps (Cycle)
system.cpu.fetch.icacheWaitRetryStallCycles           12                       # Number of stall cycles due to full MSHR (Cycle)
system.cpu.fetch.cacheLines                    304216                       # Number of cache lines fetched (Count)
system.cpu.fetch.icacheSquashes                  1666                       # Number of outstanding Icache misses that were squashed (Count)
system.cpu.fetch.nisnDist::samples          394486308                       # Number of instructions fetched each cycle (Total) (Count)
system.cpu.fetch.nisnDist::mean              0.260729                       # Number of instructions fetched each cycle (Total) (Count)
system.cpu.fetch.nisnDist::stdev             1.284778                       # Number of instructions fetched each cycle (Total) (Count)
system.cpu.fetch.nisnDist::underflows               0      0.00%      0.00% # Number of instructions fetched each cycle (Total) (Count)
system.cpu.fetch.nisnDist::0                375909349     95.29%     95.29% # Number of instructions fetched each cycle (Total) (Count)
system.cpu.fetch.nisnDist::1                   951522      0.24%     95.53% # Number of instructions fetched each cycle (Total) (Count)
system.cpu.fetch.nisnDist::2                  2491443      0.63%     96.16% # Number of instructions fetched each cycle (Total) (Count)
system.cpu.fetch.nisnDist::3                   984147      0.25%     96.41% # Number of instructions fetched each cycle (Total) (Count)
system.cpu.fetch.nisnDist::4                  2455506      0.62%     97.04% # Number of instructions fetched each cycle (Total) (Count)
system.cpu.fetch.nisnDist::5                   956325      0.24%     97.28% # Number of instructions fetched each cycle (Total) (Count)
system.cpu.fetch.nisnDist::6                  2941953      0.75%     98.02% # Number of instructions fetched each cycle (Total) (Count)
system.cpu.fetch.nisnDist::7                   656757      0.17%     98.19% # Number of instructions fetched each cycle (Total) (Count)
system.cpu.fetch.nisnDist::8                  7139306      1.81%    100.00% # Number of instructions fetched each cycle (Total) (Count)
system.cpu.fetch.nisnDist::overflows                0      0.00%    100.00% # Number of instructions fetched each cycle (Total) (Count)
system.cpu.fetch.nisnDist::min_value                0                       # Number of instructions fetched each cycle (Total) (Count)
system.cpu.fetch.nisnDist::max_value                8                       # Number of instructions fetched each cycle (Total) (Count)
system.cpu.fetch.nisnDist::total            394486308                       # Number of instructions fetched each cycle (Total) (Count)
system.cpu.fetch.branchRate                  0.017764                       # Number of branch fetches per cycle (Ratio)
system.cpu.fetch.rate                        0.135515                       # Number of inst fetches per cycle ((Count/Cycle))
system.cpu.icache.demandHits::cpu.inst         302867                       # number of demand (read+write) hits (Count)
system.cpu.icache.demandHits::total            302867                       # number of demand (read+write) hits (Count)
system.cpu.icache.overallHits::cpu.inst        302867                       # number of overall hits (Count)
system.cpu.icache.overallHits::total           302867                       # number of overall hits (Count)
system.cpu.icache.demandMisses::cpu.inst         1349                       # number of demand (read+write) misses (Count)
system.cpu.icache.demandMisses::total            1349                       # number of demand (read+write) misses (Count)
system.cpu.icache.overallMisses::cpu.inst         1349                       # number of overall misses (Count)
system.cpu.icache.overallMisses::total           1349                       # number of overall misses (Count)
system.cpu.icache.demandMissLatency::cpu.inst    106445999                       # number of demand (read+write) miss ticks (Tick)
system.cpu.icache.demandMissLatency::total    106445999                       # number of demand (read+write) miss ticks (Tick)
system.cpu.icache.overallMissLatency::cpu.inst    106445999                       # number of overall miss ticks (Tick)
system.cpu.icache.overallMissLatency::total    106445999                       # number of overall miss ticks (Tick)
system.cpu.icache.demandAccesses::cpu.inst       304216                       # number of demand (read+write) accesses (Count)
system.cpu.icache.demandAccesses::total        304216                       # number of demand (read+write) accesses (Count)
system.cpu.icache.overallAccesses::cpu.inst       304216                       # number of overall (read+write) accesses (Count)
system.cpu.icache.overallAccesses::total       304216                       # number of overall (read+write) accesses (Count)
system.cpu.icache.demandMissRate::cpu.inst     0.004434                       # miss rate for demand accesses (Ratio)
system.cpu.icache.demandMissRate::total      0.004434                       # miss rate for demand accesses (Ratio)
system.cpu.icache.overallMissRate::cpu.inst     0.004434                       # miss rate for overall accesses (Ratio)
system.cpu.icache.overallMissRate::total     0.004434                       # miss rate for overall accesses (Ratio)
system.cpu.icache.demandAvgMissLatency::cpu.inst 78907.338028                       # average overall miss latency in ticks ((Tick/Count))
system.cpu.icache.demandAvgMissLatency::total 78907.338028                       # average overall miss latency in ticks ((Tick/Count))
system.cpu.icache.overallAvgMissLatency::cpu.inst 78907.338028                       # average overall miss latency ((Tick/Count))
system.cpu.icache.overallAvgMissLatency::total 78907.338028                       # average overall miss latency ((Tick/Count))
system.cpu.icache.blockedCycles::no_mshrs           97                       # number of cycles access was blocked (Cycle)
system.cpu.icache.blockedCycles::no_targets            0                       # number of cycles access was blocked (Cycle)
system.cpu.icache.blockedCauses::no_mshrs            7                       # number of times access was blocked (Count)
system.cpu.icache.blockedCauses::no_targets            0                       # number of times access was blocked (Count)
system.cpu.icache.avgBlocked::no_mshrs      13.857143                       # average number of cycles each access was blocked ((Cycle/Count))
system.cpu.icache.avgBlocked::no_targets          nan                       # average number of cycles each access was blocked ((Cycle/Count))
system.cpu.icache.demandMshrHits::cpu.inst          356                       # number of demand (read+write) MSHR hits (Count)
system.cpu.icache.demandMshrHits::total           356                       # number of demand (read+write) MSHR hits (Count)
system.cpu.icache.overallMshrHits::cpu.inst          356                       # number of overall MSHR hits (Count)
system.cpu.icache.overallMshrHits::total          356                       # number of overall MSHR hits (Count)
system.cpu.icache.demandMshrMisses::cpu.inst          993                       # number of demand (read+write) MSHR misses (Count)
system.cpu.icache.demandMshrMisses::total          993                       # number of demand (read+write) MSHR misses (Count)
system.cpu.icache.overallMshrMisses::cpu.inst          993                       # number of overall MSHR misses (Count)
system.cpu.icache.overallMshrMisses::total          993                       # number of overall MSHR misses (Count)
system.cpu.icache.demandMshrMissLatency::cpu.inst     85062999                       # number of demand (read+write) MSHR miss ticks (Tick)
system.cpu.icache.demandMshrMissLatency::total     85062999                       # number of demand (read+write) MSHR miss ticks (Tick)
system.cpu.icache.overallMshrMissLatency::cpu.inst     85062999                       # number of overall MSHR miss ticks (Tick)
system.cpu.icache.overallMshrMissLatency::total     85062999                       # number of overall MSHR miss ticks (Tick)
system.cpu.icache.demandMshrMissRate::cpu.inst     0.003264                       # mshr miss ratio for demand accesses (Ratio)
system.cpu.icache.demandMshrMissRate::total     0.003264                       # mshr miss ratio for demand accesses (Ratio)
system.cpu.icache.overallMshrMissRate::cpu.inst     0.003264                       # mshr miss ratio for overall accesses (Ratio)
system.cpu.icache.overallMshrMissRate::total     0.003264                       # mshr miss ratio for overall accesses (Ratio)
system.cpu.icache.demandAvgMshrMissLatency::cpu.inst 85662.637462                       # average overall mshr miss latency ((Tick/Count))
system.cpu.icache.demandAvgMshrMissLatency::total 85662.637462                       # average overall mshr miss latency ((Tick/Count))
system.cpu.icache.overallAvgMshrMissLatency::cpu.inst 85662.637462                       # average overall mshr miss latency ((Tick/Count))
system.cpu.icache.overallAvgMshrMissLatency::total 85662.637462                       # average overall mshr miss latency ((Tick/Count))
system.cpu.icache.replacements                    158                       # number of replacements (Count)
system.cpu.icache.ReadReq.hits::cpu.inst       302867                       # number of ReadReq hits (Count)
system.cpu.icache.ReadReq.hits::total          302867                       # number of ReadReq hits (Count)
system.cpu.icache.ReadReq.misses::cpu.inst         1349                       # number of ReadReq misses (Count)
system.cpu.icache.ReadReq.misses::total          1349                       # number of ReadReq misses (Count)
system.cpu.icache.ReadReq.missLatency::cpu.inst    106445999                       # number of ReadReq miss ticks (Tick)
system.cpu.icache.ReadReq.missLatency::total    106445999                       # number of ReadReq miss ticks (Tick)
system.cpu.icache.ReadReq.accesses::cpu.inst       304216                       # number of ReadReq accesses(hits+misses) (Count)
system.cpu.icache.ReadReq.accesses::total       304216                       # number of ReadReq accesses(hits+misses) (Count)
system.cpu.icache.ReadReq.missRate::cpu.inst     0.004434                       # miss rate for ReadReq accesses (Ratio)
system.cpu.icache.ReadReq.missRate::total     0.004434                       # miss rate for ReadReq accesses (Ratio)
system.cpu.icache.ReadReq.avgMissLatency::cpu.inst 78907.338028                       # average ReadReq miss latency ((Tick/Count))
system.cpu.icache.ReadReq.avgMissLatency::total 78907.338028                       # average ReadReq miss latency ((Tick/Count))
system.cpu.icache.ReadReq.mshrHits::cpu.inst          356                       # number of ReadReq MSHR hits (Count)
system.cpu.icache.ReadReq.mshrHits::total          356                       # number of ReadReq MSHR hits (Count)
system.cpu.icache.ReadReq.mshrMisses::cpu.inst          993                       # number of ReadReq MSHR misses (Count)
system.cpu.icache.ReadReq.mshrMisses::total          993                       # number of ReadReq MSHR misses (Count)
system.cpu.icache.ReadReq.mshrMissLatency::cpu.inst     85062999                       # number of ReadReq MSHR miss ticks (Tick)
system.cpu.icache.ReadReq.mshrMissLatency::total     85062999                       # number of ReadReq MSHR miss ticks (Tick)
system.cpu.icache.ReadReq.mshrMissRate::cpu.inst     0.003264                       # mshr miss rate for ReadReq accesses (Ratio)
system.cpu.icache.ReadReq.mshrMissRate::total     0.003264                       # mshr miss rate for ReadReq accesses (Ratio)
system.cpu.icache.ReadReq.avgMshrMissLatency::cpu.inst 85662.637462                       # average ReadReq mshr miss latency ((Tick/Count))
system.cpu.icache.ReadReq.avgMshrMissLatency::total 85662.637462                       # average ReadReq mshr miss latency ((Tick/Count))
system.cpu.icache.power_state.pwrStateResidencyTicks::UNDEFINED 394508760000                       # Cumulative time (in ticks) in various power states (Tick)
system.cpu.icache.prefetcher.demandMshrMisses          993                       # demands not covered by prefetchs (Count)
system.cpu.icache.prefetcher.pfIssued               0                       # number of hwpf issued (Count)
system.cpu.icache.prefetcher.pfUseful               0                       # number of useful prefetch (Count)
system.cpu.icache.prefetcher.pfUsefulButMiss            0                       # number of hit on prefetch but cache block is not in an usable state (Count)
system.cpu.icache.prefetcher.accuracy             nan                       # accuracy of the prefetcher (Count)
system.cpu.icache.prefetcher.coverage               0                       # coverage brought by this prefetcher (Count)
system.cpu.icache.prefetcher.pfHitInCache            0                       # number of prefetches hitting in cache (Count)
system.cpu.icache.prefetcher.pfHitInMSHR            0                       # number of prefetches hitting in a MSHR (Count)
system.cpu.icache.prefetcher.pfHitInWB              0                       # number of prefetches hit in the Write Buffer (Count)
system.cpu.icache.prefetcher.pfLate                 0                       # number of late prefetches (hitting in cache, MSHR or WB) (Count)
system.cpu.icache.prefetcher.pfIdentified            0                       # number of prefetch candidates identified (Count)
system.cpu.icache.prefetcher.pfBufferHit            0                       # number of redundant prefetches already in prefetch queue (Count)
system.cpu.icache.prefetcher.pfInCache              0                       # number of redundant prefetches already in cache/mshr dropped (Count)
system.cpu.icache.prefetcher.pfRemovedDemand            0                       # number of prefetches dropped due to a demand for the same address (Count)
system.cpu.icache.prefetcher.pfRemovedFull            0                       # number of prefetches dropped due to prefetch queue size (Count)
system.cpu.icache.prefetcher.pfSpanPage             0                       # number of prefetches that crossed the page (Count)
system.cpu.icache.prefetcher.pfUsefulSpanPage            0                       # number of prefetches that is useful and crossed the page (Count)
system.cpu.icache.prefetcher.power_state.pwrStateResidencyTicks::UNDEFINED 394508760000                       # Cumulative time (in ticks) in various power states (Tick)
system.cpu.icache.tags.tagsInUse           591.319298                       # Average ticks per tags in use ((Tick/Count))
system.cpu.icache.tags.totalRefs               303860                       # Total number of references to valid blocks. (Count)
system.cpu.icache.tags.sampledRefs                993                       # Sample count of references to valid blocks. (Count)
system.cpu.icache.tags.avgRefs             306.002014                       # Average number of references to valid blocks. ((Count/Count))
system.cpu.icache.tags.warmupTick               88000                       # The tick when the warmup percentage was hit. (Tick)
system.cpu.icache.tags.occupancies::cpu.inst   591.319298                       # Average occupied blocks per tick, per requestor ((Count/Tick))
system.cpu.icache.tags.avgOccs::cpu.inst     0.577460                       # Average percentage of cache occupancy ((Ratio/Tick))
system.cpu.icache.tags.avgOccs::total        0.577460                       # Average percentage of cache occupancy ((Ratio/Tick))
system.cpu.icache.tags.occupanciesTaskId::1024          835                       # Occupied blocks per task id (Count)
system.cpu.icache.tags.ageTaskId_1024::4          835                       # Occupied blocks per task id, per block age (Count)
system.cpu.icache.tags.ratioOccsTaskId::1024     0.815430                       # Ratio of occupied blocks and all blocks, per task id (Ratio)
system.cpu.icache.tags.tagAccesses            1217857                       # Number of tag accesses (Count)
system.cpu.icache.tags.dataAccesses           1217857                       # Number of data accesses (Count)
system.cpu.icache.tags.power_state.pwrStateResidencyTicks::UNDEFINED 394508760000                       # Cumulative time (in ticks) in various power states (Tick)
system.cpu.iew.idleCycles                           0                       # Number of cycles IEW is idle (Cycle)
system.cpu.iew.squashCycles                     47341                       # Number of cycles IEW is squashing (Cycle)
system.cpu.iew.blockCycles                   18972010                       # Number of cycles IEW is blocking (Cycle)
system.cpu.iew.unblockCycles                200004999                       # Number of cycles IEW is unblocking (Cycle)
system.cpu.iew.dispatchedInsts              100832843                       # Number of instructions dispatched to IQ (Count)
system.cpu.iew.dispSquashedInsts                   73                       # Number of squashed instructions skipped by dispatch (Count)
system.cpu.iew.dispLoadInsts                  1385261                       # Number of dispatched load instructions (Count)
system.cpu.iew.dispStoreInsts                54855160                       # Number of dispatched store instructions (Count)
system.cpu.iew.dispNonSpecInsts                   235                       # Number of dispatched non-speculative instructions (Count)
system.cpu.iew.iqFullEvents                     21053                       # Number of times the IQ has become full, causing a stall (Count)
system.cpu.iew.lsqFullEvents                199971090                       # Number of times the LSQ has become full, causing a stall (Count)
system.cpu.iew.memOrderViolationEvents            631                       # Number of memory order violations (Count)
[...]
system.mem_ctrl.dram.numWrites::writebacks      6477518                       # Number of write requests responded to by this memory (Count)
system.mem_ctrl.dram.numWrites::total         6477518                       # Number of write requests responded to by this memory (Count)
system.mem_ctrl.dram.bwRead::cpu.inst          160767                       # Total read bandwidth from this memory ((Byte/Second))
system.mem_ctrl.dram.bwRead::cpu.data       524179995                       # Total read bandwidth from this memory ((Byte/Second))
system.mem_ctrl.dram.bwRead::cpu.dcache.prefetcher    525824816                       # Total read bandwidth from this memory ((Byte/Second))
system.mem_ctrl.dram.bwRead::l2cache.prefetcher      1546186                       # Total read bandwidth from this memory ((Byte/Second))
system.mem_ctrl.dram.bwRead::total         1051711764                       # Total read bandwidth from this memory ((Byte/Second))
system.mem_ctrl.dram.bwInstRead::cpu.inst       160767                       # Instruction read bandwidth from this memory ((Byte/Second))
system.mem_ctrl.dram.bwInstRead::total         160767                       # Instruction read bandwidth from this memory ((Byte/Second))
system.mem_ctrl.dram.bwWrite::writebacks   1050828762                       # Write bandwidth from this memory ((Byte/Second))
system.mem_ctrl.dram.bwWrite::total        1050828762                       # Write bandwidth from this memory ((Byte/Second))
system.mem_ctrl.dram.bwTotal::writebacks   1050828762                       # Total bandwidth to/from this memory ((Byte/Second))
system.mem_ctrl.dram.bwTotal::cpu.inst         160767                       # Total bandwidth to/from this memory ((Byte/Second))
system.mem_ctrl.dram.bwTotal::cpu.data      524179995                       # Total bandwidth to/from this memory ((Byte/Second))
system.mem_ctrl.dram.bwTotal::cpu.dcache.prefetcher    525824816                       # Total bandwidth to/from this memory ((Byte/Second))
system.mem_ctrl.dram.bwTotal::l2cache.prefetcher      1546186                       # Total bandwidth to/from this memory ((Byte/Second))
system.mem_ctrl.dram.bwTotal::total        2102540527                       # Total bandwidth to/from this memory ((Byte/Second))
system.mem_ctrl.dram.readBursts               6482961                       # Number of DRAM read bursts (Count)
system.mem_ctrl.dram.writeBursts              6477492                       # Number of DRAM write bursts (Count)
system.mem_ctrl.dram.perBankRdBursts::0        405125                       # Per bank write bursts (Count)
system.mem_ctrl.dram.perBankRdBursts::1        405067                       # Per bank write bursts (Count)
system.mem_ctrl.dram.perBankRdBursts::2        405053                       # Per bank write bursts (Count)
system.mem_ctrl.dram.perBankRdBursts::3        405235                       # Per bank write bursts (Count)
system.mem_ctrl.dram.perBankRdBursts::4        405292                       # Per bank write bursts (Count)
system.mem_ctrl.dram.perBankRdBursts::5        405247                       # Per bank write bursts (Count)
system.mem_ctrl.dram.perBankRdBursts::6        405185                       # Per bank write bursts (Count)
system.mem_ctrl.dram.perBankRdBursts::7        405039                       # Per bank write bursts (Count)
system.mem_ctrl.dram.perBankRdBursts::8        404895                       # Per bank write bursts (Count)
system.mem_ctrl.dram.perBankRdBursts::9        405167                       # Per bank write bursts (Count)
system.mem_ctrl.dram.perBankRdBursts::10       405275                       # Per bank write bursts (Count)
system.mem_ctrl.dram.perBankRdBursts::11       405338                       # Per bank write bursts (Count)
system.mem_ctrl.dram.perBankRdBursts::12       405141                       # Per bank write bursts (Count)
system.mem_ctrl.dram.perBankRdBursts::13       405382                       # Per bank write bursts (Count)
system.mem_ctrl.dram.perBankRdBursts::14       405253                       # Per bank write bursts (Count)
system.mem_ctrl.dram.perBankRdBursts::15       405267                       # Per bank write bursts (Count)
system.mem_ctrl.dram.perBankWrBursts::0        404736                       # Per bank write bursts (Count)
system.mem_ctrl.dram.perBankWrBursts::1        404748                       # Per bank write bursts (Count)
system.mem_ctrl.dram.perBankWrBursts::2        404764                       # Per bank write bursts (Count)
system.mem_ctrl.dram.perBankWrBursts::3        404865                       # Per bank write bursts (Count)
system.mem_ctrl.dram.perBankWrBursts::4        404880                       # Per bank write bursts (Count)
system.mem_ctrl.dram.perBankWrBursts::5        404863                       # Per bank write bursts (Count)
system.mem_ctrl.dram.perBankWrBursts::6        404882                       # Per bank write bursts (Count)
system.mem_ctrl.dram.perBankWrBursts::7        404656                       # Per bank write bursts (Count)
system.mem_ctrl.dram.perBankWrBursts::8        404592                       # Per bank write bursts (Count)
system.mem_ctrl.dram.perBankWrBursts::9        404815                       # Per bank write bursts (Count)
system.mem_ctrl.dram.perBankWrBursts::10       404936                       # Per bank write bursts (Count)
system.mem_ctrl.dram.perBankWrBursts::11       405028                       # Per bank write bursts (Count)
system.mem_ctrl.dram.perBankWrBursts::12       404836                       # Per bank write bursts (Count)
system.mem_ctrl.dram.perBankWrBursts::13       405042                       # Per bank write bursts (Count)
system.mem_ctrl.dram.perBankWrBursts::14       404931                       # Per bank write bursts (Count)
system.mem_ctrl.dram.perBankWrBursts::15       404918                       # Per bank write bursts (Count)
system.mem_ctrl.dram.totQLat             115507961205                       # Total ticks spent queuing (Tick)
system.mem_ctrl.dram.totBusLat            32414805000                       # Total ticks spent in databus transfers (Tick)
system.mem_ctrl.dram.totMemAccLat        237063479955                       # Total ticks spent from burst creation until serviced by the DRAM (Tick)
system.mem_ctrl.dram.avgQLat                 17817.16                       # Average queueing delay per DRAM burst ((Tick/Count))
system.mem_ctrl.dram.avgBusLat                5000.00                       # Average bus latency per DRAM burst ((Tick/Count))
system.mem_ctrl.dram.avgMemAccLat            36567.16                       # Average memory access latency per DRAM burst ((Tick/Count))
system.mem_ctrl.dram.readRowHits              5995705                       # Number of row buffer hits during reads (Count)
system.mem_ctrl.dram.writeRowHits             6014658                       # Number of row buffer hits during writes (Count)
system.mem_ctrl.dram.readRowHitRate             92.48                       # Row buffer hit rate for reads (Ratio)
system.mem_ctrl.dram.writeRowHitRate            92.85                       # Row buffer hit rate for writes (Ratio)
system.mem_ctrl.dram.bytesPerActivate::samples       950088                       # Bytes accessed per row activation (Byte)
system.mem_ctrl.dram.bytesPerActivate::mean   873.042901                       # Bytes accessed per row activation (Byte)
system.mem_ctrl.dram.bytesPerActivate::gmean   800.617802                       # Bytes accessed per row activation (Byte)
system.mem_ctrl.dram.bytesPerActivate::stdev   266.605436                       # Bytes accessed per row activation (Byte)
system.mem_ctrl.dram.bytesPerActivate::0-127        12321      1.30%      1.30% # Bytes accessed per row activation (Byte)
system.mem_ctrl.dram.bytesPerActivate::128-255        15515      1.63%      2.93% # Bytes accessed per row activation (Byte)
system.mem_ctrl.dram.bytesPerActivate::256-383        36679      3.86%      6.79% # Bytes accessed per row activation (Byte)
system.mem_ctrl.dram.bytesPerActivate::384-511        66941      7.05%     13.84% # Bytes accessed per row activation (Byte)
system.mem_ctrl.dram.bytesPerActivate::512-639        73259      7.71%     21.55% # Bytes accessed per row activation (Byte)
system.mem_ctrl.dram.bytesPerActivate::640-767        32644      3.44%     24.98% # Bytes accessed per row activation (Byte)
system.mem_ctrl.dram.bytesPerActivate::768-895         9282      0.98%     25.96% # Bytes accessed per row activation (Byte)
system.mem_ctrl.dram.bytesPerActivate::896-1023        17716      1.86%     27.82% # Bytes accessed per row activation (Byte)
system.mem_ctrl.dram.bytesPerActivate::1024-1151       685731     72.18%    100.00% # Bytes accessed per row activation (Byte)
system.mem_ctrl.dram.bytesPerActivate::total       950088                       # Bytes accessed per row activation (Byte)
system.mem_ctrl.dram.bytesRead              414909504                       # Total bytes read (Byte)
system.mem_ctrl.dram.bytesWritten           414559488                       # Total bytes written (Byte)
system.mem_ctrl.dram.avgRdBW              1051.711764                       # Average DRAM read bandwidth in MiBytes/s ((Byte/Second))
system.mem_ctrl.dram.avgWrBW              1050.824544                       # Average DRAM write bandwidth in MiBytes/s ((Byte/Second))
system.mem_ctrl.dram.peakBW                  12800.00                       # Theoretical peak bandwidth in MiByte/s ((Byte/Second))
system.mem_ctrl.dram.busUtil                    16.43                       # Data bus utilization in percentage (Ratio)
system.mem_ctrl.dram.busUtilRead                 8.22                       # Data bus utilization in percentage for reads (Ratio)
system.mem_ctrl.dram.busUtilWrite                8.21                       # Data bus utilization in percentage for writes (Ratio)
system.mem_ctrl.dram.pageHitRate                92.67                       # Row buffer hit rate, read and write combined (Ratio)
system.mem_ctrl.dram.power_state.pwrStateResidencyTicks::UNDEFINED 394508760000                       # Cumulative time (in ticks) in various power states (Tick)
system.mem_ctrl.dram.rank0.actEnergy       3389800680                       # Energy for activate commands per rank (pJ) (Joule)
system.mem_ctrl.dram.rank0.preEnergy       1801721790                       # Energy for precharge commands per rank (pJ) (Joule)
system.mem_ctrl.dram.rank0.readEnergy     23142475020                       # Energy for read commands per rank (pJ) (Joule)
system.mem_ctrl.dram.rank0.writeEnergy    16904416680                       # Energy for write commands per rank (pJ) (Joule)
system.mem_ctrl.dram.rank0.refreshEnergy 31141964880.000004                       # Energy for refresh commands per rank (pJ) (Joule)
system.mem_ctrl.dram.rank0.actBackEnergy  98074222230                       # Energy for active background per rank (pJ) (Joule)
system.mem_ctrl.dram.rank0.preBackEnergy  68902545120                       # Energy for precharge background per rank (pJ) (Joule)
system.mem_ctrl.dram.rank0.actPowerDownEnergy            0                       # Energy for active power-down per rank (pJ) (Joule)
system.mem_ctrl.dram.rank0.prePowerDownEnergy            0                       # Energy for precharge power-down per rank (pJ) (Joule)
system.mem_ctrl.dram.rank0.selfRefreshEnergy            0                       # Energy for self refresh per rank (pJ) (Joule)
system.mem_ctrl.dram.rank0.totalEnergy   243357146400                       # Total energy per rank (pJ) (Joule)
system.mem_ctrl.dram.rank0.averagePower    616.861198                       # Core power per rank (mW) (Watt)
system.mem_ctrl.dram.rank0.totalIdleTime            0                       # Total Idle time Per DRAM Rank (Tick)
system.mem_ctrl.dram.rank0.pwrStateTime::IDLE 176404672516                       # Time in different power states (Tick)
system.mem_ctrl.dram.rank0.pwrStateTime::REF  13173420000                       # Time in different power states (Tick)
system.mem_ctrl.dram.rank0.pwrStateTime::SREF            0                       # Time in different power states (Tick)
system.mem_ctrl.dram.rank0.pwrStateTime::PRE_PDN            0                       # Time in different power states (Tick)
system.mem_ctrl.dram.rank0.pwrStateTime::ACT 204930667484                       # Time in different power states (Tick)
system.mem_ctrl.dram.rank0.pwrStateTime::ACT_PDN            0                       # Time in different power states (Tick)
system.mem_ctrl.dram.rank1.actEnergy       3393841920                       # Energy for activate commands per rank (pJ) (Joule)
system.mem_ctrl.dram.rank1.preEnergy       1803862170                       # Energy for precharge commands per rank (pJ) (Joule)
system.mem_ctrl.dram.rank1.readEnergy     23145866520                       # Energy for read commands per rank (pJ) (Joule)
system.mem_ctrl.dram.rank1.writeEnergy    16908065460                       # Energy for write commands per rank (pJ) (Joule)
system.mem_ctrl.dram.rank1.refreshEnergy 31141964880.000004                       # Energy for refresh commands per rank (pJ) (Joule)
system.mem_ctrl.dram.rank1.actBackEnergy  98390576790                       # Energy for active background per rank (pJ) (Joule)
system.mem_ctrl.dram.rank1.preBackEnergy  68636141280                       # Energy for precharge background per rank (pJ) (Joule)
system.mem_ctrl.dram.rank1.actPowerDownEnergy            0                       # Energy for active power-down per rank (pJ) (Joule)
system.mem_ctrl.dram.rank1.prePowerDownEnergy            0                       # Energy for precharge power-down per rank (pJ) (Joule)
system.mem_ctrl.dram.rank1.selfRefreshEnergy            0                       # Energy for self refresh per rank (pJ) (Joule)
system.mem_ctrl.dram.rank1.totalEnergy   243420319020                       # Total energy per rank (pJ) (Joule)
system.mem_ctrl.dram.rank1.averagePower    617.021328                       # Core power per rank (mW) (Watt)
system.mem_ctrl.dram.rank1.totalIdleTime            0                       # Total Idle time Per DRAM Rank (Tick)
system.mem_ctrl.dram.rank1.pwrStateTime::IDLE 175639596000                       # Time in different power states (Tick)
system.mem_ctrl.dram.rank1.pwrStateTime::REF  13173420000                       # Time in different power states (Tick)
system.mem_ctrl.dram.rank1.pwrStateTime::SREF            0                       # Time in different power states (Tick)
system.mem_ctrl.dram.rank1.pwrStateTime::PRE_PDN            0                       # Time in different power states (Tick)
system.mem_ctrl.dram.rank1.pwrStateTime::ACT 205695744000                       # Time in different power states (Tick)
system.mem_ctrl.dram.rank1.pwrStateTime::ACT_PDN            0                       # Time in different power states (Tick)
system.mem_ctrl.power_state.pwrStateResidencyTicks::UNDEFINED 394508760000                       # Cumulative time (in ticks) in various power states (Tick)
system.membus.transDist::ReadResp             3252158                       # Transaction distribution (Count)
system.membus.transDist::WritebackDirty       6477518                       # Transaction distribution (Count)
system.membus.transDist::CleanEvict               512                       # Transaction distribution (Count)
system.membus.transDist::ReadExReq            3230803                       # Transaction distribution (Count)
system.membus.transDist::ReadExResp           3230803                       # Transaction distribution (Count)
system.membus.transDist::ReadSharedReq        3252158                       # Transaction distribution (Count)
system.membus.pktCount_system.l2cache.mem_side_port::system.mem_ctrl.port     19443952                       # Packet count per connected requestor and responder (Count)
system.membus.pktCount_system.l2cache.mem_side_port::total     19443952                       # Packet count per connected requestor and responder (Count)
system.membus.pktCount::total                19443952                       # Packet count per connected requestor and responder (Count)
system.membus.pktSize_system.l2cache.mem_side_port::system.mem_ctrl.port    829470656                       # Cumulative packet size per connected requestor and responder (Byte)
system.membus.pktSize_system.l2cache.mem_side_port::total    829470656                       # Cumulative packet size per connected requestor and responder (Byte)
system.membus.pktSize::total                829470656                       # Cumulative packet size per connected requestor and responder (Byte)
system.membus.snoops                                0                       # Total snoops (Count)
system.membus.snoopTraffic                          0                       # Total snoop traffic (Byte)
system.membus.snoopFanout::samples            6482961                       # Request fanout histogram (Count)
system.membus.snoopFanout::mean                     0                       # Request fanout histogram (Count)
system.membus.snoopFanout::stdev                    0                       # Request fanout histogram (Count)
system.membus.snoopFanout::underflows               0      0.00%      0.00% # Request fanout histogram (Count)
system.membus.snoopFanout::0                  6482961    100.00%    100.00% # Request fanout histogram (Count)
system.membus.snoopFanout::1                        0      0.00%    100.00% # Request fanout histogram (Count)
system.membus.snoopFanout::overflows                0      0.00%    100.00% # Request fanout histogram (Count)
system.membus.snoopFanout::min_value                0                       # Request fanout histogram (Count)
system.membus.snoopFanout::max_value                0                       # Request fanout histogram (Count)
system.membus.snoopFanout::total              6482961                       # Request fanout histogram (Count)
system.membus.power_state.pwrStateResidencyTicks::UNDEFINED 394508760000                       # Cumulative time (in ticks) in various power states (Tick)
system.membus.reqLayer2.occupancy         38873517054                       # Layer occupancy (ticks) (Tick)
system.membus.reqLayer2.utilization               0.1                       # Layer utilization (Ratio)
system.membus.respLayer0.occupancy        33656481056                       # Layer occupancy (ticks) (Tick)
system.membus.respLayer0.utilization              0.1                       # Layer utilization (Ratio)
system.membus.snoop_filter.totRequests       12960991                       # Total number of requests made to the snoop filter. (Count)
system.membus.snoop_filter.hitSingleRequests      6478030                       # Number of requests hitting in the snoop filter with a single holder of the requested data. (Count)
system.membus.snoop_filter.hitMultiRequests            0                       # Number of requests hitting in the snoop filter with multiple (>1) holders of the requested data. (Count)
system.membus.snoop_filter.totSnoops                0                       # Total number of snoops made to the snoop filter. (Count)
system.membus.snoop_filter.hitSingleSnoops            0                       # Number of snoops hitting in the snoop filter with a single holder of the requested data. (Count)
system.membus.snoop_filter.hitMultiSnoops            0                       # Number of snoops hitting in the snoop filter with multiple (>1) holders of the requested data. (Count)
system.workload.inst.arm                            0                       # number of arm instructions executed (Count)
system.workload.inst.quiesce                        0                       # number of quiesce instructions executed (Count)

---------- End Simulation Statistics   ----------
