
---------- Begin Simulation Statistics ----------
simSeconds                                   0.371546                       # Number of seconds simulated (Second)
simTicks                                 371545523000                       # Number of ticks simulated (Tick)
finalTick                                371545523000                       # Number of ticks from beginning of simulation (restored from checkpoints and never reset) (Tick)
simFreq                                  1000000000000                       # The number of ticks per simulated second ((Tick/Second))
hostSeconds                                   3036.27                       # Real time elapsed on the host (Second)
hostTickRate                                122368984                       # The number of ticks simulated per host second (ticks/s) ((Tick/Second))
hostMemory                                    8524588                       # Number of bytes of host memory used (Byte)
simInsts                                     50000003                       # Number of instructions simulated (Count)
simOps                                       62368877                       # Number of ops (including micro ops) simulated (Count)
hostInstRate                                    16468                       # Simulator instruction rate (inst/s) ((Count/Second))
hostOpRate                                      20541                       # Simulator op (including micro ops) rate (op/s) ((Count/Second))
system.clk_domain.clock                          1000                       # Clock period in ticks (Tick)
system.clk_domain.voltage_domain.voltage            1                       # Voltage in Volts (Volt)
system.cpu.numCycles                        371545535                       # Number of cpu cycles simulated (Cycle)
system.cpu.numWorkItemsStarted                      0                       # Number of work items this cpu started (Count)
system.cpu.numWorkItemsCompleted                    0                       # Number of work items this cpu completed (Count)
system.cpu.instsAdded                      1020772554                       # Number of instructions added to the IQ (excludes non-spec) (Count)
system.cpu.nonSpecInstsAdded                 35976599                       # Number of non-speculative instructions added to the IQ (Count)
system.cpu.instsIssued                      972870062                       # Number of instructions issued (Count)
system.cpu.squashedInstsIssued               12452891                       # Number of squashed instructions issued (Count)
system.cpu.squashedInstsExamined            994380192                       # Number of squashed instructions iterated over during squash; mainly for profiling (Count)
system.cpu.squashedOperandsExamined         488842611                       # Number of squashed operands that are examined and possibly removed from graph (Count)
system.cpu.squashedNonSpecRemoved            35087847                       # Number of squashed non-spec instructions that were removed (Count)
system.cpu.numIssuedDist::samples           371532469                       # Number of insts issued each cycle (Count)
system.cpu.numIssuedDist::mean               2.618533                       # Number of insts issued each cycle (Count)
system.cpu.numIssuedDist::stdev              2.747205                       # Number of insts issued each cycle (Count)
system.cpu.numIssuedDist::underflows                0      0.00%      0.00% # Number of insts issued each cycle (Count)
system.cpu.numIssuedDist::0                 157799133     42.47%     42.47% # Number of insts issued each cycle (Count)
system.cpu.numIssuedDist::1                  16954672      4.56%     47.04% # Number of insts issued each cycle (Count)
system.cpu.numIssuedDist::2                  26561219      7.15%     54.19% # Number of insts issued each cycle (Count)
system.cpu.numIssuedDist::3                  30630724      8.24%     62.43% # Number of insts issued each cycle (Count)
system.cpu.numIssuedDist::4                  31440669      8.46%     70.89% # Number of insts issued each cycle (Count)
system.cpu.numIssuedDist::5                  22605244      6.08%     76.98% # Number of insts issued each cycle (Count)
system.cpu.numIssuedDist::6                  46524136     12.52%     89.50% # Number of insts issued each cycle (Count)
system.cpu.numIssuedDist::7                  19166308      5.16%     94.66% # Number of insts issued each cycle (Count)
system.cpu.numIssuedDist::8                  19850364      5.34%    100.00% # Number of insts issued each cycle (Count)
system.cpu.numIssuedDist::overflows                 0      0.00%    100.00% # Number of insts issued each cycle (Count)
system.cpu.numIssuedDist::min_value                 0                       # Number of insts issued each cycle (Count)
system.cpu.numIssuedDist::max_value                 8                       # Number of insts issued each cycle (Count)
system.cpu.numIssuedDist::total             371532469                       # Number of insts issued each cycle (Count)
system.cpu.statFuBusy::No_OpClass                   0      0.00%      0.00% # attempts to use FU when none available (Count)
system.cpu.statFuBusy::IntAlu                  295132      0.24%      0.24% # attempts to use FU when none available (Count)
system.cpu.statFuBusy::IntMult                      0      0.00%      0.24% # attempts to use FU when none available (Count)
system.cpu.statFuBusy::IntDiv                       0      0.00%      0.24% # attempts to use FU when none available (Count)
system.cpu.statFuBusy::FloatAdd                     0      0.00%      0.24% # attempts to use FU when none available (Count)
system.cpu.statFuBusy::FloatCmp                     0      0.00%      0.24% # attempts to use FU when none available (Count)
system.cpu.statFuBusy::FloatCvt                     0      0.00%      0.24% # attempts to use FU when none available (Count)
system.cpu.statFuBusy::FloatMult                    0      0.00%      0.24% # attempts to use FU when none available (Count)
system.cpu.statFuBusy::FloatMultAcc                 0      0.00%      0.24% # attempts to use FU when none available (Count)
system.cpu.statFuBusy::FloatDiv                     0      0.00%      0.24% # attempts to use FU when none available (Count)
system.cpu.statFuBusy::FloatMisc                    0      0.00%      0.24% # attempts to use FU when none available (Count)
system.cpu.statFuBusy::FloatSqrt                    0      0.00%      0.24% # attempts to use FU when none available (Count)
system.cpu.statFuBusy::SimdAdd                      0      0.00%      0.24% # attempts to use FU when none available (Count)
system.cpu.statFuBusy::SimdAddAcc                   0      0.00%      0.24% # attempts to use FU when none available (Count)
system.cpu.statFuBusy::SimdAlu                     70      0.00%      0.24% # attempts to use FU when none available (Count)
system.cpu.statFuBusy::SimdCmp                      0      0.00%      0.24% # attempts to use FU when none available (Count)
system.cpu.statFuBusy::SimdCvt                     12      0.00%      0.24% # attempts to use FU when none available (Count)
system.cpu.statFuBusy::SimdMisc                     2      0.00%      0.24% # attempts to use FU when none available (Count)
system.cpu.statFuBusy::SimdMult                     0      0.00%      0.24% # attempts to use FU when none available (Count)
system.cpu.statFuBusy::SimdMultAcc                  0      0.00%      0.24% # attempts to use FU when none available (Count)
system.cpu.statFuBusy::SimdShift                    0      0.00%      0.24% # attempts to use FU when none available (Count)
system.cpu.statFuBusy::SimdShiftAcc                 0      0.00%      0.24% # attempts to use FU when none available (Count)
system.cpu.statFuBusy::SimdDiv                      0      0.00%      0.24% # attempts to use FU when none available (Count)
system.cpu.statFuBusy::SimdSqrt                     0      0.00%      0.24% # attempts to use FU when none available (Count)
system.cpu.statFuBusy::SimdFloatAdd                 0      0.00%      0.24% # attempts to use FU when none available (Count)
system.cpu.statFuBusy::SimdFloatAlu                 0      0.00%      0.24% # attempts to use FU when none available (Count)
system.cpu.statFuBusy::SimdFloatCmp                 0      0.00%      0.24% # attempts to use FU when none available (Count)
system.cpu.statFuBusy::SimdFloatCvt                 0      0.00%      0.24% # attempts to use FU when none available (Count)
system.cpu.statFuBusy::SimdFloatDiv                 0      0.00%      0.24% # attempts to use FU when none available (Count)
system.cpu.statFuBusy::SimdFloatMisc                0      0.00%      0.24% # attempts to use FU when none available (Count)
system.cpu.statFuBusy::SimdFloatMult                0      0.00%      0.24% # attempts to use FU when none available (Count)
system.cpu.statFuBusy::SimdFloatMultAcc             0      0.00%      0.24% # attempts to use FU when none available (Count)
system.cpu.statFuBusy::SimdFloatSqrt                0      0.00%      0.24% # attempts to use FU when none available (Count)
system.cpu.statFuBusy::SimdReduceAdd                0      0.00%      0.24% # attempts to use FU when none available (Count)
system.cpu.statFuBusy::SimdReduceAlu                0      0.00%      0.24% # attempts to use FU when none available (Count)
system.cpu.statFuBusy::SimdReduceCmp                0      0.00%      0.24% # attempts to use FU when none available (Count)
system.cpu.statFuBusy::SimdFloatReduceAdd            0      0.00%      0.24% # attempts to use FU when none available (Count)
system.cpu.statFuBusy::SimdFloatReduceCmp            0      0.00%      0.24% # attempts to use FU when none available (Count)
system.cpu.statFuBusy::SimdAes                      0      0.00%      0.24% # attempts to use FU when none available (Count)
system.cpu.statFuBusy::SimdAesMix                   0      0.00%      0.24% # attempts to use FU when none available (Count)
system.cpu.statFuBusy::SimdSha1Hash                 0      0.00%      0.24% # attempts to use FU when none available (Count)
system.cpu.statFuBusy::SimdSha1Hash2                0      0.00%      0.24% # attempts to use FU when none available (Count)
system.cpu.statFuBusy::SimdSha256Hash               0      0.00%      0.24% # attempts to use FU when none available (Count)
system.cpu.statFuBusy::SimdSha256Hash2              0      0.00%      0.24% # attempts to use FU when none available (Count)
system.cpu.statFuBusy::SimdShaSigma2                0      0.00%      0.24% # attempts to use FU when none available (Count)
system.cpu.statFuBusy::SimdShaSigma3                0      0.00%      0.24% # attempts to use FU when none available (Count)
system.cpu.statFuBusy::SimdPredAlu                  0      0.00%      0.24% # attempts to use FU when none available (Count)
system.cpu.statFuBusy::MemRead              112113490     92.74%     92.98% # attempts to use FU when none available (Count)
system.cpu.statFuBusy::MemWrite               8482754      7.02%    100.00% # attempts to use FU when none available (Count)
system.cpu.statFuBusy::FloatMemRead                17      0.00%    100.00% # attempts to use FU when none available (Count)
system.cpu.statFuBusy::FloatMemWrite              125      0.00%    100.00% # attempts to use FU when none available (Count)
system.cpu.statFuBusy::IprAccess                    0      0.00%    100.00% # attempts to use FU when none available (Count)
system.cpu.statFuBusy::InstPrefetch                 0      0.00%    100.00% # attempts to use FU when none available (Count)
system.cpu.statIssuedInstType_0::No_OpClass    282077547     28.99%     28.99% # Number of instructions issued per FU type, per thread (Count)
system.cpu.statIssuedInstType_0::IntAlu     141398896     14.53%     43.53% # Number of instructions issued per FU type, per thread (Count)
system.cpu.statIssuedInstType_0::IntMult       130997      0.01%     43.54% # Number of instructions issued per FU type, per thread (Count)
system.cpu.statIssuedInstType_0::IntDiv            76      0.00%     43.54% # Number of instructions issued per FU type, per thread (Count)
system.cpu.statIssuedInstType_0::FloatAdd           62      0.00%     43.54% # Number of instructions issued per FU type, per thread (Count)
system.cpu.statIssuedInstType_0::FloatCmp            0      0.00%     43.54% # Number of instructions issued per FU type, per thread (Count)
system.cpu.statIssuedInstType_0::FloatCvt            0      0.00%     43.54% # Number of instructions issued per FU type, per thread (Count)
system.cpu.statIssuedInstType_0::FloatMult            0      0.00%     43.54% # Number of instructions issued per FU type, per thread (Count)
system.cpu.statIssuedInstType_0::FloatMultAcc            0      0.00%     43.54% # Number of instructions issued per FU type, per thread (Count)
system.cpu.statIssuedInstType_0::FloatDiv            0      0.00%     43.54% # Number of instructions issued per FU type, per thread (Count)
system.cpu.statIssuedInstType_0::FloatMisc            0      0.00%     43.54% # Number of instructions issued per FU type, per thread (Count)
system.cpu.statIssuedInstType_0::FloatSqrt            0      0.00%     43.54% # Number of instructions issued per FU type, per thread (Count)
system.cpu.statIssuedInstType_0::SimdAdd            0      0.00%     43.54% # Number of instructions issued per FU type, per thread (Count)
system.cpu.statIssuedInstType_0::SimdAddAcc            0      0.00%     43.54% # Number of instructions issued per FU type, per thread (Count)
system.cpu.statIssuedInstType_0::SimdAlu          261      0.00%     43.54% # Number of instructions issued per FU type, per thread (Count)
system.cpu.statIssuedInstType_0::SimdCmp            0      0.00%     43.54% # Number of instructions issued per FU type, per thread (Count)
system.cpu.statIssuedInstType_0::SimdCvt          142      0.00%     43.54% # Number of instructions issued per FU type, per thread (Count)
system.cpu.statIssuedInstType_0::SimdMisc          439      0.00%     43.54% # Number of instructions issued per FU type, per thread (Count)
system.cpu.statIssuedInstType_0::SimdMult            0      0.00%     43.54% # Number of instructions issued per FU type, per thread (Count)
system.cpu.statIssuedInstType_0::SimdMultAcc            0      0.00%     43.54% # Number of instructions issued per FU type, per thread (Count)
system.cpu.statIssuedInstType_0::SimdShift            0      0.00%     43.54% # Number of instructions issued per FU type, per thread (Count)
system.cpu.statIssuedInstType_0::SimdShiftAcc            0      0.00%     43.54% # Number of instructions issued per FU type, per thread (Count)
system.cpu.statIssuedInstType_0::SimdDiv            0      0.00%     43.54% # Number of instructions issued per FU type, per thread (Count)
system.cpu.statIssuedInstType_0::SimdSqrt            0      0.00%     43.54% # Number of instructions issued per FU type, per thread (Count)
system.cpu.statIssuedInstType_0::SimdFloatAdd            0      0.00%     43.54% # Number of instructions issued per FU type, per thread (Count)
system.cpu.statIssuedInstType_0::SimdFloatAlu            0      0.00%     43.54% # Number of instructions issued per FU type, per thread (Count)
system.cpu.statIssuedInstType_0::SimdFloatCmp            0      0.00%     43.54% # Number of instructions issued per FU type, per thread (Count)
system.cpu.statIssuedInstType_0::SimdFloatCvt            0      0.00%     43.54% # Number of instructions issued per FU type, per thread (Count)
system.cpu.statIssuedInstType_0::SimdFloatDiv            0      0.00%     43.54% # Number of instructions issued per FU type, per thread (Count)
system.cpu.statIssuedInstType_0::SimdFloatMisc            0      0.00%     43.54% # Number of instructions issued per FU type, per thread (Count)
system.cpu.statIssuedInstType_0::SimdFloatMult            0      0.00%     43.54% # Number of instructions issued per FU type, per thread (Count)
system.cpu.statIssuedInstType_0::SimdFloatMultAcc            0      0.00%     43.54% # Number of instructions issued per FU type, per thread (Count)
system.cpu.statIssuedInstType_0::SimdFloatSqrt            0      0.00%     43.54% # Number of instructions issued per FU type, per thread (Count)
system.cpu.statIssuedInstType_0::SimdReduceAdd            0      0.00%     43.54% # Number of instructions issued per FU type, per thread (Count)
system.cpu.statIssuedInstType_0::SimdReduceAlu            0      0.00%     43.54% # Number of instructions issued per FU type, per thread (Count)
system.cpu.statIssuedInstType_0::SimdReduceCmp            0      0.00%     43.54% # Number of instructions issued per FU type, per thread (Count)
system.cpu.statIssuedInstType_0::SimdFloatReduceAdd            0      0.00%     43.54% # Number of instructions issued per FU type, per thread (Count)
system.cpu.statIssuedInstType_0::SimdFloatReduceCmp            0      0.00%     43.54% # Number of instructions issued per FU type, per thread (Count)
system.cpu.statIssuedInstType_0::SimdAes            0      0.00%     43.54% # Number of instructions issued per FU type, per thread (Count)
system.cpu.statIssuedInstType_0::SimdAesMix            0      0.00%     43.54% # Number of instructions issued per FU type, per thread (Count)
system.cpu.statIssuedInstType_0::SimdSha1Hash            0      0.00%     43.54% # Number of instructions issued per FU type, per thread (Count)
system.cpu.statIssuedInstType_0::SimdSha1Hash2            0      0.00%     43.54% # Number of instructions issued per FU type, per thread (Count)
system.cpu.statIssuedInstType_0::SimdSha256Hash            0      0.00%     43.54% # Number of instructions issued per FU type, per thread (Count)
system.cpu.statIssuedInstType_0::SimdSha256Hash2            0      0.00%     43.54% # Number of instructions issued per FU type, per thread (Count)
system.cpu.statIssuedInstType_0::SimdShaSigma2            0      0.00%     43.54% # Number of instructions issued per FU type, per thread (Count)
system.cpu.statIssuedInstType_0::SimdShaSigma3            0      0.00%     43.54% # Number of instructions issued per FU type, per thread (Count)
system.cpu.statIssuedInstType_0::SimdPredAlu            0      0.00%     43.54% # Number of instructions issued per FU type, per thread (Count)
system.cpu.statIssuedInstType_0::MemRead    291002788     29.91%     73.45% # Number of instructions issued per FU type, per thread (Count)
system.cpu.statIssuedInstType_0::MemWrite    258258473     26.55%    100.00% # Number of instructions issued per FU type, per thread (Count)
system.cpu.statIssuedInstType_0::FloatMemRead          121      0.00%    100.00% # Number of instructions issued per FU type, per thread (Count)
system.cpu.statIssuedInstType_0::FloatMemWrite          260      0.00%    100.00% # Number of instructions issued per FU type, per thread (Count)
system.cpu.statIssuedInstType_0::IprAccess            0      0.00%    100.00% # Number of instructions issued per FU type, per thread (Count)
system.cpu.statIssuedInstType_0::InstPrefetch            0      0.00%    100.00% # Number of instructions issued per FU type, per thread (Count)
system.cpu.statIssuedInstType_0::total      972870062                       # Number of instructions issued per FU type, per thread (Count)
system.cpu.issueRate                         2.618441                       # Inst issue rate ((Count/Cycle))
system.cpu.fuBusy                           120891602                       # FU busy when requested (Count)
system.cpu.fuBusyRate                        0.124263                       # FU busy rate (busy events/executed inst) ((Count/Count))
system.cpu.intInstQueueReads               2450614092                       # Number of integer instruction queue reads (Count)
system.cpu.intInstQueueWrites              2051127299                       # Number of integer instruction queue writes (Count)
system.cpu.intInstQueueWakeupAccesses       592228499                       # Number of integer instruction queue wakeup accesses (Count)
system.cpu.fpInstQueueReads                      2986                       # Number of floating instruction queue reads (Count)
system.cpu.fpInstQueueWrites                     4051                       # Number of floating instruction queue writes (Count)
system.cpu.fpInstQueueWakeupAccesses             1296                       # Number of floating instruction queue wakeup accesses (Count)
system.cpu.vecInstQueueReads                        0                       # Number of vector instruction queue reads (Count)
system.cpu.vecInstQueueWrites                       0                       # Number of vector instruction queue writes (Count)
system.cpu.vecInstQueueWakeupAccesses               0                       # Number of vector instruction queue wakeup accesses (Count)
system.cpu.intAluAccesses                   811682524                       # Number of integer alu accesses (Count)
system.cpu.fpAluAccesses                         1593                       # Number of floating point alu accesses (Count)
system.cpu.vecAluAccesses                           0                       # Number of vector alu accesses (Count)
system.cpu.numInsts                         892823233                       # Number of executed instructions (Count)
system.cpu.numLoadInsts                     264435055                       # Number of load instructions executed (Count)
system.cpu.numSquashedInsts                  80046821                       # Number of squashed instructions skipped in execute (Count)
system.cpu.numSwp                                   0                       # Number of swp insts executed (Count)
system.cpu.numNop                                   0                       # Number of nop insts executed (Count)
system.cpu.numRefs                          483254349                       # Number of memory reference insts executed (Count)
system.cpu.numBranches                       18031328                       # Number of branches executed (Count)
system.cpu.numStoreInsts                    218819294                       # Number of stores executed (Count)
system.cpu.numRate                           2.402998                       # Inst execution rate ((Count/Cycle))
system.cpu.timesIdled                             285                       # Number of times that the entire CPU went into an idle state and unscheduled itself (Count)
system.cpu.idleCycles                           13066                       # Total number of cycles that the CPU has spent unscheduled due to idling (Cycle)
system.cpu.committedInsts                    50000003                       # Number of Instructions Simulated (Count)
system.cpu.committedOps                      62368877                       # Number of Ops (including micro ops) Simulated (Count)
system.cpu.cpi                               7.430910                       # CPI: Cycles Per Instruction ((Cycle/Count))
system.cpu.totalCpi                          7.430910                       # CPI: Total CPI of All Threads ((Cycle/Count))
system.cpu.ipc                               0.134573                       # IPC: Instructions Per Cycle ((Count/Cycle))
system.cpu.totalIpc                          0.134573                       # IPC: Total IPC of All Threads ((Count/Cycle))
system.cpu.intRegfileReads                  857939317                       # Number of integer regfile reads (Count)
system.cpu.intRegfileWrites                 361065100                       # Number of integer regfile writes (Count)
system.cpu.fpRegfileReads                        2123                       # Number of floating regfile reads (Count)
system.cpu.fpRegfileWrites                        959                       # Number of floating regfile writes (Count)
system.cpu.ccRegfileReads                   103829560                       # number of cc regfile reads (Count)
system.cpu.ccRegfileWrites                   45826372                       # number of cc regfile writes (Count)
system.cpu.miscRegfileReads                 522422912                       # number of misc regfile reads (Count)
system.cpu.MemDepUnit__0.insertedLoads      303601422                       # Number of loads inserted to the mem dependence unit. (Count)
system.cpu.MemDepUnit__0.insertedStores     293503077                       # Number of stores inserted to the mem dependence unit. (Count)
system.cpu.MemDepUnit__0.conflictingLoads      9089985                       # Number of conflicting loads. (Count)
system.cpu.MemDepUnit__0.conflictingStores      1805313                       # Number of conflicting stores. (Count)
system.cpu.MemDepUnit__1.insertedLoads              0                       # Number of loads inserted to the mem dependence unit. (Count)
system.cpu.MemDepUnit__1.insertedStores             0                       # Number of stores inserted to the mem dependence unit. (Count)
system.cpu.MemDepUnit__1.conflictingLoads            0                       # Number of conflicting loads. (Count)
system.cpu.MemDepUnit__1.conflictingStores            0                       # Number of conflicting stores. (Count)
system.cpu.MemDepUnit__2.insertedLoads              0                       # Number of loads inserted to the mem dependence unit. (Count)
system.cpu.MemDepUnit__2.insertedStores             0                       # Number of stores inserted to the mem dependence unit. (Count)
system.cpu.MemDepUnit__2.conflictingLoads            0                       # Number of conflicting loads. (Count)
system.cpu.MemDepUnit__2.conflictingStores            0                       # Number of conflicting stores. (Count)
system.cpu.MemDepUnit__3.insertedLoads              0                       # Number of loads inserted to the mem dependence unit. (Count)
system.cpu.MemDepUnit__3.insertedStores             0                       # Number of stores inserted to the mem dependence unit. (Count)
system.cpu.MemDepUnit__3.conflictingLoads            0                       # Number of conflicting loads. (Count)
system.cpu.MemDepUnit__3.conflictingStores            0                       # Number of conflicting stores. (Count)
system.cpu.branchPred.lookups                24856926                       # Number of BP lookups (Count)
system.cpu.branchPred.condPredicted          24112373                       # Number of conditional branches predicted (Count)
system.cpu.branchPred.condIncorrect             23605                       # Number of conditional branches incorrect (Count)
system.cpu.branchPred.BTBLookups             24104600                       # Number of BTB lookups (Count)
system.cpu.branchPred.BTBHits                24103155                       # Number of BTB hits (Count)
system.cpu.branchPred.BTBHitRatio            0.999940                       # BTB Hit Ratio (Ratio)
system.cpu.branchPred.RASUsed                   23998                       # Number of times the RAS was used to get a target. (Count)
system.cpu.branchPred.RASIncorrect                  2                       # Number of incorrect RAS predictions. (Count)
system.cpu.branchPred.indirectLookups             269                       # Number of indirect predictor lookups. (Count)
system.cpu.branchPred.indirectHits                 53                       # Number of indirect target hits. (Count)
system.cpu.branchPred.indirectMisses              216                       # Number of indirect misses. (Count)
system.cpu.branchPred.indirectMispredicted           83                       # Number of mispredicted indirect branches. (Count)
system.cpu.commit.commitSquashedInsts       622086250                       # The number of squashed insts skipped by commit (Count)
system.cpu.commit.commitNonSpecStalls          888752                       # The number of times commit has been forced to stall to communicate backwards (Count)
system.cpu.commit.branchMispredicts             23146                       # The number of times a branch was mispredicted (Count)
system.cpu.commit.numCommittedDist::samples    290900571                       # Number of insts commited each cycle (Count)
system.cpu.commit.numCommittedDist::mean     0.214399                       # Number of insts commited each cycle (Count)
system.cpu.commit.numCommittedDist::stdev     1.074708                       # Number of insts commited each cycle (Count)
system.cpu.commit.numCommittedDist::underflows            0      0.00%      0.00% # Number of insts commited each cycle (Count)
system.cpu.commit.numCommittedDist::0       269968668     92.80%     92.80% # Number of insts commited each cycle (Count)
system.cpu.commit.numCommittedDist::1        10796952      3.71%     96.52% # Number of insts commited each cycle (Count)
system.cpu.commit.numCommittedDist::2         3456544      1.19%     97.70% # Number of insts commited each cycle (Count)
system.cpu.commit.numCommittedDist::3         1112187      0.38%     98.09% # Number of insts commited each cycle (Count)
system.cpu.commit.numCommittedDist::4          189328      0.07%     98.15% # Number of insts commited each cycle (Count)
system.cpu.commit.numCommittedDist::5          655393      0.23%     98.38% # Number of insts commited each cycle (Count)
system.cpu.commit.numCommittedDist::6          199105      0.07%     98.45% # Number of insts commited each cycle (Count)
system.cpu.commit.numCommittedDist::7           85783      0.03%     98.47% # Number of insts commited each cycle (Count)
system.cpu.commit.numCommittedDist::8         4436611      1.53%    100.00% # Number of insts commited each cycle (Count)
system.cpu.commit.numCommittedDist::overflows            0      0.00%    100.00% # Number of insts commited each cycle (Count)
system.cpu.commit.numCommittedDist::min_value            0                       # Number of insts commited each cycle (Count)
system.cpu.commit.numCommittedDist::max_value            8                       # Number of insts commited each cycle (Count)
system.cpu.commit.numCommittedDist::total    290900571                       # Number of insts commited each cycle (Count)
system.cpu.commit.instsCommitted             50000003                       # Number of instructions committed (Count)
system.cpu.commit.opsCommitted               62368877                       # Number of ops (including micro ops) committed (Count)
system.cpu.commit.memRefs                    36814371                       # Number of memory references committed (Count)
system.cpu.commit.loads                      25317332                       # Number of loads committed (Count)
system.cpu.commit.amos                              0                       # Number of atomic instructions committed (Count)
system.cpu.commit.membars                          48                       # Number of memory barriers committed (Count)
system.cpu.commit.branches                    3201950                       # Number of branches committed (Count)
system.cpu.commit.vectorInstructions                0                       # Number of committed Vector instructions. (Count)
system.cpu.commit.floating                        835                       # Number of committed floating point instructions. (Count)
system.cpu.commit.integer                    61431731                       # Number of committed integer instructions. (Count)
system.cpu.commit.functionCalls                 21390                       # Number of function calls committed. (Count)
system.cpu.commit.committedInstType_0::No_OpClass       888801      1.43%      1.43% # Class of committed instruction (Count)
system.cpu.commit.committedInstType_0::IntAlu     24534237     39.34%     40.76% # Class of committed instruction (Count)
system.cpu.commit.committedInstType_0::IntMult       130868      0.21%     40.97% # Class of committed instruction (Count)
system.cpu.commit.committedInstType_0::IntDiv           70      0.00%     40.97% # Class of committed instruction (Count)
system.cpu.commit.committedInstType_0::FloatAdd           21      0.00%     40.97% # Class of committed instruction (Count)
system.cpu.commit.committedInstType_0::FloatCmp            0      0.00%     40.97% # Class of committed instruction (Count)
system.cpu.commit.committedInstType_0::FloatCvt            0      0.00%     40.97% # Class of committed instruction (Count)
system.cpu.commit.committedInstType_0::FloatMult            0      0.00%     40.97% # Class of committed instruction (Count)
system.cpu.commit.committedInstType_0::FloatMultAcc            0      0.00%     40.97% # Class of committed instruction (Count)
system.cpu.commit.committedInstType_0::FloatDiv            0      0.00%     40.97% # Class of committed instruction (Count)
system.cpu.commit.committedInstType_0::FloatMisc            0      0.00%     40.97% # Class of committed instruction (Count)
system.cpu.commit.committedInstType_0::FloatSqrt            0      0.00%     40.97% # Class of committed instruction (Count)
system.cpu.commit.committedInstType_0::SimdAdd            0      0.00%     40.97% # Class of committed instruction (Count)
system.cpu.commit.committedInstType_0::SimdAddAcc            0      0.00%     40.97% # Class of committed instruction (Count)
system.cpu.commit.committedInstType_0::SimdAlu          142      0.00%     40.97% # Class of committed instruction (Count)
system.cpu.commit.committedInstType_0::SimdCmp            0      0.00%     40.97% # Class of committed instruction (Count)
system.cpu.commit.committedInstType_0::SimdCvt          126      0.00%     40.97% # Class of committed instruction (Count)
system.cpu.commit.committedInstType_0::SimdMisc          241      0.00%     40.97% # Class of committed instruction (Count)
system.cpu.commit.committedInstType_0::SimdMult            0      0.00%     40.97% # Class of committed instruction (Count)
system.cpu.commit.committedInstType_0::SimdMultAcc            0      0.00%     40.97% # Class of committed instruction (Count)
system.cpu.commit.committedInstType_0::SimdShift            0      0.00%     40.97% # Class of committed instruction (Count)
system.cpu.commit.committedInstType_0::SimdShiftAcc            0      0.00%     40.97% # Class of committed instruction (Count)
system.cpu.commit.committedInstType_0::SimdDiv            0      0.00%     40.97% # Class of committed instruction (Count)
system.cpu.commit.committedInstType_0::SimdSqrt            0      0.00%     40.97% # Class of committed instruction (Count)
system.cpu.commit.committedInstType_0::SimdFloatAdd            0      0.00%     40.97% # Class of committed instruction (Count)
system.cpu.commit.committedInstType_0::SimdFloatAlu            0      0.00%     40.97% # Class of committed instruction (Count)
system.cpu.commit.committedInstType_0::SimdFloatCmp            0      0.00%     40.97% # Class of committed instruction (Count)
system.cpu.commit.committedInstType_0::SimdFloatCvt            0      0.00%     40.97% # Class of committed instruction (Count)
system.cpu.commit.committedInstType_0::SimdFloatDiv            0      0.00%     40.97% # Class of committed instruction (Count)
system.cpu.commit.committedInstType_0::SimdFloatMisc            0      0.00%     40.97% # Class of committed instruction (Count)
system.cpu.commit.committedInstType_0::SimdFloatMult            0      0.00%     40.97% # Class of committed instruction (Count)
system.cpu.commit.committedInstType_0::SimdFloatMultAcc            0      0.00%     40.97% # Class of committed instruction (Count)
system.cpu.commit.committedInstType_0::SimdFloatSqrt            0      0.00%     40.97% # Class of committed instruction (Count)
system.cpu.commit.committedInstType_0::SimdReduceAdd            0      0.00%     40.97% # Class of committed instruction (Count)
system.cpu.commit.committedInstType_0::SimdReduceAlu            0      0.00%     40.97% # Class of committed instruction (Count)
system.cpu.commit.committedInstType_0::SimdReduceCmp            0      0.00%     40.97% # Class of committed instruction (Count)
system.cpu.commit.committedInstType_0::SimdFloatReduceAdd            0      0.00%     40.97% # Class of committed instruction (Count)
system.cpu.commit.committedInstType_0::SimdFloatReduceCmp            0      0.00%     40.97% # Class of committed instruction (Count)
system.cpu.commit.committedInstType_0::SimdAes            0      0.00%     40.97% # Class of committed instruction (Count)
system.cpu.commit.committedInstType_0::SimdAesMix            0      0.00%     40.97% # Class of committed instruction (Count)
system.cpu.commit.committedInstType_0::SimdSha1Hash            0      0.00%     40.97% # Class of committed instruction (Count)
system.cpu.commit.committedInstType_0::SimdSha1Hash2            0      0.00%     40.97% # Class of committed instruction (Count)
system.cpu.commit.committedInstType_0::SimdSha256Hash            0      0.00%     40.97% # Class of committed instruction (Count)
system.cpu.commit.committedInstType_0::SimdSha256Hash2            0      0.00%     40.97% # Class of committed instruction (Count)
system.cpu.commit.committedInstType_0::SimdShaSigma2            0      0.00%     40.97% # Class of committed instruction (Count)
system.cpu.commit.committedInstType_0::SimdShaSigma3            0      0.00%     40.97% # Class of committed instruction (Count)
system.cpu.commit.committedInstType_0::SimdPredAlu            0      0.00%     40.97% # Class of committed instruction (Count)
system.cpu.commit.committedInstType_0::MemRead     25317250     40.59%     81.57% # Class of committed instruction (Count)
system.cpu.commit.committedInstType_0::MemWrite     11496875     18.43%    100.00% # Class of committed instruction (Count)
system.cpu.commit.committedInstType_0::FloatMemRead           82      0.00%    100.00% # Class of committed instruction (Count)
system.cpu.commit.committedInstType_0::FloatMemWrite          164      0.00%    100.00% # Class of committed instruction (Count)
system.cpu.commit.committedInstType_0::IprAccess            0      0.00%    100.00% # Class of committed instruction (Count)
system.cpu.commit.committedInstType_0::InstPrefetch            0      0.00%    100.00% # Class of committed instruction (Count)
system.cpu.commit.committedInstType_0::total     62368877                       # Class of committed instruction (Count)
system.cpu.commit.commitEligibleSamples       4436611                       # number cycles where commit BW limit reached (Cycle)
system.cpu.dcache.demandHits::cpu.data      267435760                       # number of demand (read+write) hits (Count)
system.cpu.dcache.demandHits::total         267435760                       # number of demand (read+write) hits (Count)
system.cpu.dcache.overallHits::cpu.data     267435767                       # number of overall hits (Count)
system.cpu.dcache.overallHits::total        267435767                       # number of overall hits (Count)
system.cpu.dcache.demandMisses::cpu.data      3028305                       # number of demand (read+write) misses (Count)
system.cpu.dcache.demandMisses::total         3028305                       # number of demand (read+write) misses (Count)
system.cpu.dcache.overallMisses::cpu.data      3093848                       # number of overall misses (Count)
system.cpu.dcache.overallMisses::total        3093848                       # number of overall misses (Count)
system.cpu.dcache.demandMissLatency::cpu.data 194341491960                       # number of demand (read+write) miss ticks (Tick)
system.cpu.dcache.demandMissLatency::total 194341491960                       # number of demand (read+write) miss ticks (Tick)
system.cpu.dcache.overallMissLatency::cpu.data 194341491960                       # number of overall miss ticks (Tick)
system.cpu.dcache.overallMissLatency::total 194341491960                       # number of overall miss ticks (Tick)
system.cpu.dcache.demandAccesses::cpu.data    270464065                       # number of demand (read+write) accesses (Count)
system.cpu.dcache.demandAccesses::total     270464065                       # number of demand (read+write) accesses (Count)
system.cpu.dcache.overallAccesses::cpu.data    270529615                       # number of overall (read+write) accesses (Count)
system.cpu.dcache.overallAccesses::total    270529615                       # number of overall (read+write) accesses (Count)
system.cpu.dcache.demandMissRate::cpu.data     0.011197                       # miss rate for demand accesses (Ratio)
system.cpu.dcache.demandMissRate::total      0.011197                       # miss rate for demand accesses (Ratio)
system.cpu.dcache.overallMissRate::cpu.data     0.011436                       # miss rate for overall accesses (Ratio)
system.cpu.dcache.overallMissRate::total     0.011436                       # miss rate for overall accesses (Ratio)
system.cpu.dcache.demandAvgMissLatency::cpu.data 64175.006137                       # average overall miss latency in ticks ((Tick/Count))
system.cpu.dcache.demandAvgMissLatency::total 64175.006137                       # average overall miss latency in ticks ((Tick/Count))
system.cpu.dcache.overallAvgMissLatency::cpu.data 62815.462156                       # average overall miss latency ((Tick/Count))
system.cpu.dcache.overallAvgMissLatency::total 62815.462156                       # average overall miss latency ((Tick/Count))
system.cpu.dcache.blockedCycles::no_mshrs      1840803                       # number of cycles access was blocked (Cycle)
system.cpu.dcache.blockedCycles::no_targets        71219                       # number of cycles access was blocked (Cycle)
system.cpu.dcache.blockedCauses::no_mshrs        56318                       # number of times access was blocked (Count)
system.cpu.dcache.blockedCauses::no_targets          915                       # number of times access was blocked (Count)
system.cpu.dcache.avgBlocked::no_mshrs      32.685873                       # average number of cycles each access was blocked ((Cycle/Count))
system.cpu.dcache.avgBlocked::no_targets    77.834973                       # average number of cycles each access was blocked ((Cycle/Count))
system.cpu.dcache.writebacks::writebacks      1124750                       # number of writebacks (Count)
system.cpu.dcache.writebacks::total           1124750                       # number of writebacks (Count)
system.cpu.dcache.demandMshrHits::cpu.data      1955072                       # number of demand (read+write) MSHR hits (Count)
system.cpu.dcache.demandMshrHits::total       1955072                       # number of demand (read+write) MSHR hits (Count)
system.cpu.dcache.overallMshrHits::cpu.data      1955072                       # number of overall MSHR hits (Count)
system.cpu.dcache.overallMshrHits::total      1955072                       # number of overall MSHR hits (Count)
system.cpu.dcache.demandMshrMisses::cpu.data      1073233                       # number of demand (read+write) MSHR misses (Count)
system.cpu.dcache.demandMshrMisses::total      1073233                       # number of demand (read+write) MSHR misses (Count)
system.cpu.dcache.overallMshrMisses::cpu.data      1138775                       # number of overall MSHR misses (Count)
system.cpu.dcache.overallMshrMisses::cpu.dcache.prefetcher       979488                       # number of overall MSHR misses (Count)
system.cpu.dcache.overallMshrMisses::total      2118263                       # number of overall MSHR misses (Count)
system.cpu.dcache.demandMshrMissLatency::cpu.data  74037638960                       # number of demand (read+write) MSHR miss ticks (Tick)
system.cpu.dcache.demandMshrMissLatency::total  74037638960                       # number of demand (read+write) MSHR miss ticks (Tick)
system.cpu.dcache.overallMshrMissLatency::cpu.data  80003853960                       # number of overall MSHR miss ticks (Tick)
system.cpu.dcache.overallMshrMissLatency::cpu.dcache.prefetcher  55079270168                       # number of overall MSHR miss ticks (Tick)
system.cpu.dcache.overallMshrMissLatency::total 135083124128                       # number of overall MSHR miss ticks (Tick)
system.cpu.dcache.demandMshrMissRate::cpu.data     0.003968                       # mshr miss ratio for demand accesses (Ratio)
system.cpu.dcache.demandMshrMissRate::total     0.003968                       # mshr miss ratio for demand accesses (Ratio)
system.cpu.dcache.overallMshrMissRate::cpu.data     0.004209                       # mshr miss ratio for overall accesses (Ratio)
system.cpu.dcache.overallMshrMissRate::cpu.dcache.prefetcher          inf                       # mshr miss ratio for overall accesses (Ratio)
system.cpu.dcache.overallMshrMissRate::total     0.007830                       # mshr miss ratio for overall accesses (Ratio)
system.cpu.dcache.demandAvgMshrMissLatency::cpu.data 68985.615388                       # average overall mshr miss latency ((Tick/Count))
system.cpu.dcache.demandAvgMshrMissLatency::total 68985.615388                       # average overall mshr miss latency ((Tick/Count))
system.cpu.dcache.overallAvgMshrMissLatency::cpu.data 70254.311835                       # average overall mshr miss latency ((Tick/Count))
system.cpu.dcache.overallAvgMshrMissLatency::cpu.dcache.prefetcher 56232.715631                       # average overall mshr miss latency ((Tick/Count))
system.cpu.dcache.overallAvgMshrMissLatency::total 63770.704642                       # average overall mshr miss latency ((Tick/Count))
system.cpu.dcache.replacements                2117239                       # number of replacements (Count)
system.cpu.dcache.HardPFReq.mshrMisses::cpu.dcache.prefetcher       979488                       # number of HardPFReq MSHR misses (Count)
system.cpu.dcache.HardPFReq.mshrMisses::total       979488                       # number of HardPFReq MSHR misses (Count)
system.cpu.dcache.HardPFReq.mshrMissLatency::cpu.dcache.prefetcher  55079270168                       # number of HardPFReq MSHR miss ticks (Tick)
system.cpu.dcache.HardPFReq.mshrMissLatency::total  55079270168                       # number of HardPFReq MSHR miss ticks (Tick)
system.cpu.dcache.HardPFReq.mshrMissRate::cpu.dcache.prefetcher          inf                       # mshr miss rate for HardPFReq accesses (Ratio)
system.cpu.dcache.HardPFReq.mshrMissRate::total          inf                       # mshr miss rate for HardPFReq accesses (Ratio)
system.cpu.dcache.HardPFReq.avgMshrMissLatency::cpu.dcache.prefetcher 56232.715631                       # average HardPFReq mshr miss latency ((Tick/Count))
system.cpu.dcache.HardPFReq.avgMshrMissLatency::total 56232.715631                       # average HardPFReq mshr miss latency ((Tick/Count))
system.cpu.dcache.LockedRMWReadReq.hits::cpu.data           24                       # number of LockedRMWReadReq hits (Count)
system.cpu.dcache.LockedRMWReadReq.hits::total           24                       # number of LockedRMWReadReq hits (Count)
system.cpu.dcache.LockedRMWReadReq.accesses::cpu.data           24                       # number of LockedRMWReadReq accesses(hits+misses) (Count)
system.cpu.dcache.LockedRMWReadReq.accesses::total           24                       # number of LockedRMWReadReq accesses(hits+misses) (Count)
system.cpu.dcache.LockedRMWReadReq.mshrMissLatency::cpu.data       321000                       # number of LockedRMWReadReq MSHR miss ticks (Tick)
system.cpu.dcache.LockedRMWReadReq.mshrMissLatency::total       321000                       # number of LockedRMWReadReq MSHR miss ticks (Tick)
system.cpu.dcache.LockedRMWReadReq.avgMshrMissLatency::cpu.data          inf                       # average LockedRMWReadReq mshr miss latency ((Tick/Count))
system.cpu.dcache.LockedRMWReadReq.avgMshrMissLatency::total          inf                       # average LockedRMWReadReq mshr miss latency ((Tick/Count))
system.cpu.dcache.LockedRMWWriteReq.hits::cpu.data           24                       # number of LockedRMWWriteReq hits (Count)
system.cpu.dcache.LockedRMWWriteReq.hits::total           24                       # number of LockedRMWWriteReq hits (Count)
system.cpu.dcache.LockedRMWWriteReq.accesses::cpu.data           24                       # number of LockedRMWWriteReq accesses(hits+misses) (Count)
system.cpu.dcache.LockedRMWWriteReq.accesses::total           24                       # number of LockedRMWWriteReq accesses(hits+misses) (Count)
system.cpu.dcache.ReadReq.hits::cpu.data    256518968                       # number of ReadReq hits (Count)
system.cpu.dcache.ReadReq.hits::total       256518968                       # number of ReadReq hits (Count)
system.cpu.dcache.ReadReq.misses::cpu.data      2448086                       # number of ReadReq misses (Count)
system.cpu.dcache.ReadReq.misses::total       2448086                       # number of ReadReq misses (Count)
system.cpu.dcache.ReadReq.missLatency::cpu.data 152575152000                       # number of ReadReq miss ticks (Tick)
system.cpu.dcache.ReadReq.missLatency::total 152575152000                       # number of ReadReq miss ticks (Tick)
system.cpu.dcache.ReadReq.accesses::cpu.data    258967054                       # number of ReadReq accesses(hits+misses) (Count)
system.cpu.dcache.ReadReq.accesses::total    258967054                       # number of ReadReq accesses(hits+misses) (Count)
system.cpu.dcache.ReadReq.missRate::cpu.data     0.009453                       # miss rate for ReadReq accesses (Ratio)
system.cpu.dcache.ReadReq.missRate::total     0.009453                       # miss rate for ReadReq accesses (Ratio)
system.cpu.dcache.ReadReq.avgMissLatency::cpu.data 62324.261484                       # average ReadReq miss latency ((Tick/Count))
system.cpu.dcache.ReadReq.avgMissLatency::total 62324.261484                       # average ReadReq miss latency ((Tick/Count))
system.cpu.dcache.ReadReq.mshrHits::cpu.data      1938497                       # number of ReadReq MSHR hits (Count)
system.cpu.dcache.ReadReq.mshrHits::total      1938497                       # number of ReadReq MSHR hits (Count)
system.cpu.dcache.ReadReq.mshrMisses::cpu.data       509589                       # number of ReadReq MSHR misses (Count)
system.cpu.dcache.ReadReq.mshrMisses::total       509589                       # number of ReadReq MSHR misses (Count)
system.cpu.dcache.ReadReq.mshrMissLatency::cpu.data  34656971000                       # number of ReadReq MSHR miss ticks (Tick)
system.cpu.dcache.ReadReq.mshrMissLatency::total  34656971000                       # number of ReadReq MSHR miss ticks (Tick)
system.cpu.dcache.ReadReq.mshrMissRate::cpu.data     0.001968                       # mshr miss rate for ReadReq accesses (Ratio)
system.cpu.dcache.ReadReq.mshrMissRate::total     0.001968                       # mshr miss rate for ReadReq accesses (Ratio)
system.cpu.dcache.ReadReq.avgMshrMissLatency::cpu.data 68009.652877                       # average ReadReq mshr miss latency ((Tick/Count))
system.cpu.dcache.ReadReq.avgMshrMissLatency::total 68009.652877                       # average ReadReq mshr miss latency ((Tick/Count))
system.cpu.dcache.SoftPFReq.hits::cpu.data            7                       # number of SoftPFReq hits (Count)
system.cpu.dcache.SoftPFReq.hits::total             7                       # number of SoftPFReq hits (Count)
system.cpu.dcache.SoftPFReq.misses::cpu.data        65543                       # number of SoftPFReq misses (Count)
system.cpu.dcache.SoftPFReq.misses::total        65543                       # number of SoftPFReq misses (Count)
system.cpu.dcache.SoftPFReq.accesses::cpu.data        65550                       # number of SoftPFReq accesses(hits+misses) (Count)
system.cpu.dcache.SoftPFReq.accesses::total        65550                       # number of SoftPFReq accesses(hits+misses) (Count)
system.cpu.dcache.SoftPFReq.missRate::cpu.data     0.999893                       # miss rate for SoftPFReq accesses (Ratio)
system.cpu.dcache.SoftPFReq.missRate::total     0.999893                       # miss rate for SoftPFReq accesses (Ratio)
system.cpu.dcache.SoftPFReq.mshrMisses::cpu.data        65542                       # number of SoftPFReq MSHR misses (Count)
system.cpu.dcache.SoftPFReq.mshrMisses::total        65542                       # number of SoftPFReq MSHR misses (Count)
system.cpu.dcache.SoftPFReq.mshrMissLatency::cpu.data   5966215000                       # number of SoftPFReq MSHR miss ticks (Tick)
system.cpu.dcache.SoftPFReq.mshrMissLatency::total   5966215000                       # number of SoftPFReq MSHR miss ticks (Tick)
system.cpu.dcache.SoftPFReq.mshrMissRate::cpu.data     0.999878                       # mshr miss rate for SoftPFReq accesses (Ratio)
system.cpu.dcache.SoftPFReq.mshrMissRate::total     0.999878                       # mshr miss rate for SoftPFReq accesses (Ratio)
system.cpu.dcache.SoftPFReq.avgMshrMissLatency::cpu.data 91028.882243                       # average SoftPFReq mshr miss latency ((Tick/Count))
system.cpu.dcache.SoftPFReq.avgMshrMissLatency::total 91028.882243                       # average SoftPFReq mshr miss latency ((Tick/Count))
system.cpu.dcache.WriteReq.hits::cpu.data     10916792                       # number of WriteReq hits (Count)
system.cpu.dcache.WriteReq.hits::total       10916792                       # number of WriteReq hits (Count)
system.cpu.dcache.WriteReq.misses::cpu.data       580219                       # number of WriteReq misses (Count)
system.cpu.dcache.WriteReq.misses::total       580219                       # number of WriteReq misses (Count)
system.cpu.dcache.WriteReq.missLatency::cpu.data  41766339960                       # number of WriteReq miss ticks (Tick)
system.cpu.dcache.WriteReq.missLatency::total  41766339960                       # number of WriteReq miss ticks (Tick)
system.cpu.dcache.WriteReq.accesses::cpu.data     11497011                       # number of WriteReq accesses(hits+misses) (Count)
system.cpu.dcache.WriteReq.accesses::total     11497011                       # number of WriteReq accesses(hits+misses) (Count)
system.cpu.dcache.WriteReq.missRate::cpu.data     0.050467                       # miss rate for WriteReq accesses (Ratio)
system.cpu.dcache.WriteReq.missRate::total     0.050467                       # miss rate for WriteReq accesses (Ratio)
system.cpu.dcache.WriteReq.avgMissLatency::cpu.data 71983.750894                       # average WriteReq miss latency ((Tick/Count))
system.cpu.dcache.WriteReq.avgMissLatency::total 71983.750894                       # average WriteReq miss latency ((Tick/Count))
system.cpu.dcache.WriteReq.mshrHits::cpu.data        16575                       # number of WriteReq MSHR hits (Count)
system.cpu.dcache.WriteReq.mshrHits::total        16575                       # number of WriteReq MSHR hits (Count)
system.cpu.dcache.WriteReq.mshrMisses::cpu.data       563644                       # number of WriteReq MSHR misses (Count)
system.cpu.dcache.WriteReq.mshrMisses::total       563644                       # number of WriteReq MSHR misses (Count)
system.cpu.dcache.WriteReq.mshrMissLatency::cpu.data  39380667960                       # number of WriteReq MSHR miss ticks (Tick)
system.cpu.dcache.WriteReq.mshrMissLatency::total  39380667960                       # number of WriteReq MSHR miss ticks (Tick)
system.cpu.dcache.WriteReq.mshrMissRate::cpu.data     0.049025                       # mshr miss rate for WriteReq accesses (Ratio)
system.cpu.dcache.WriteReq.mshrMissRate::total     0.049025                       # mshr miss rate for WriteReq accesses (Ratio)
system.cpu.dcache.WriteReq.avgMshrMissLatency::cpu.data 69867.980427                       # average WriteReq mshr miss latency ((Tick/Count))
system.cpu.dcache.WriteReq.avgMshrMissLatency::total 69867.980427                       # average WriteReq mshr miss latency ((Tick/Count))
system.cpu.dcache.power_state.pwrStateResidencyTicks::UNDEFINED 371545523000                       # Cumulative time (in ticks) in various power states (Tick)
system.cpu.dcache.prefetcher.demandMshrMisses      1073233                       # demands not covered by prefetchs (Count)
system.cpu.dcache.prefetcher.pfIssued         1072328                       # number of hwpf issued (Count)
system.cpu.dcache.prefetcher.pfUnused              30                       # number of HardPF blocks evicted w/o reference (Count)
system.cpu.dcache.prefetcher.pfUseful          950269                       # number of useful prefetch (Count)
system.cpu.dcache.prefetcher.pfUsefulButMiss            0                       # number of hit on prefetch but cache block is not in an usable state (Count)
system.cpu.dcache.prefetcher.accuracy        0.886174                       # accuracy of the prefetcher (Count)
system.cpu.dcache.prefetcher.coverage        0.469616                       # coverage brought by this prefetcher (Count)
system.cpu.dcache.prefetcher.pfHitInCache        92825                       # number of prefetches hitting in cache (Count)
system.cpu.dcache.prefetcher.pfHitInMSHR           15                       # number of prefetches hitting in a MSHR (Count)
system.cpu.dcache.prefetcher.pfHitInWB              0                       # number of prefetches hit in the Write Buffer (Count)
system.cpu.dcache.prefetcher.pfLate             92840                       # number of late prefetches (hitting in cache, MSHR or WB) (Count)
system.cpu.dcache.prefetcher.pfIdentified      2120688                       # number of prefetch candidates identified (Count)
system.cpu.dcache.prefetcher.pfBufferHit       755129                       # number of redundant prefetches already in prefetch queue (Count)
system.cpu.dcache.prefetcher.pfInCache              0                       # number of redundant prefetches already in cache/mshr dropped (Count)
system.cpu.dcache.prefetcher.pfRemovedDemand        40411                       # number of prefetches dropped due to a demand for the same address (Count)
system.cpu.dcache.prefetcher.pfRemovedFull            0                       # number of prefetches dropped due to prefetch queue size (Count)
system.cpu.dcache.prefetcher.pfSpanPage        548060                       # number of prefetches that crossed the page (Count)
system.cpu.dcache.prefetcher.pfUsefulSpanPage            0                       # number of prefetches that is useful and crossed the page (Count)
system.cpu.dcache.prefetcher.power_state.pwrStateResidencyTicks::UNDEFINED 371545523000                       # Cumulative time (in ticks) in various power states (Tick)
system.cpu.dcache.tags.tagsInUse           992.949482                       # Average ticks per tags in use ((Tick/Count))
system.cpu.dcache.tags.totalRefs            269554078                       # Total number of references to valid blocks. (Count)
system.cpu.dcache.tags.sampledRefs            2118263                       # Sample count of references to valid blocks. (Count)
system.cpu.dcache.tags.avgRefs             127.252413                       # Average number of references to valid blocks. ((Count/Count))
system.cpu.dcache.tags.warmupTick              200000                       # The tick when the warmup percentage was hit. (Tick)
system.cpu.dcache.tags.occupancies::cpu.data   508.719901                       # Average occupied blocks per tick, per requestor ((Count/Tick))
system.cpu.dcache.tags.occupancies::cpu.dcache.prefetcher   484.229581                       # Average occupied blocks per tick, per requestor ((Count/Tick))
system.cpu.dcache.tags.avgOccs::cpu.data     0.496797                       # Average percentage of cache occupancy ((Ratio/Tick))
system.cpu.dcache.tags.avgOccs::cpu.dcache.prefetcher     0.472880                       # Average percentage of cache occupancy ((Ratio/Tick))
system.cpu.dcache.tags.avgOccs::total        0.969677                       # Average percentage of cache occupancy ((Ratio/Tick))
system.cpu.dcache.tags.occupanciesTaskId::1022          452                       # Occupied blocks per task id (Count)
system.cpu.dcache.tags.occupanciesTaskId::1024          572                       # Occupied blocks per task id (Count)
system.cpu.dcache.tags.ageTaskId_1022::2          227                       # Occupied blocks per task id, per block age (Count)
system.cpu.dcache.tags.ageTaskId_1022::3          206                       # Occupied blocks per task id, per block age (Count)
system.cpu.dcache.tags.ageTaskId_1022::4           19                       # Occupied blocks per task id, per block age (Count)
system.cpu.dcache.tags.ageTaskId_1024::0            2                       # Occupied blocks per task id, per block age (Count)
system.cpu.dcache.tags.ageTaskId_1024::1           19                       # Occupied blocks per task id, per block age (Count)
system.cpu.dcache.tags.ageTaskId_1024::2          243                       # Occupied blocks per task id, per block age (Count)
system.cpu.dcache.tags.ageTaskId_1024::3          211                       # Occupied blocks per task id, per block age (Count)
system.cpu.dcache.tags.ageTaskId_1024::4           97                       # Occupied blocks per task id, per block age (Count)
system.cpu.dcache.tags.ratioOccsTaskId::1022     0.441406                       # Ratio of occupied blocks and all blocks, per task id (Ratio)
system.cpu.dcache.tags.ratioOccsTaskId::1024     0.558594                       # Ratio of occupied blocks and all blocks, per task id (Ratio)
system.cpu.dcache.tags.tagAccesses         1084236915                       # Number of tag accesses (Count)
system.cpu.dcache.tags.dataAccesses        1084236915                       # Number of data accesses (Count)
system.cpu.dcache.tags.power_state.pwrStateResidencyTicks::UNDEFINED 371545523000                       # Cumulative time (in ticks) in various power states (Tick)
system.cpu.decode.idleCycles                 65985304                       # Number of cycles decode is idle (Cycle)
system.cpu.decode.blockedCycles             132016944                       # Number of cycles decode is blocked (Cycle)
system.cpu.decode.runCycles                 154103907                       # Number of cycles decode is running (Cycle)
system.cpu.decode.unblockCycles              12242533                       # Number of cycles decode is unblocking (Cycle)
system.cpu.decode.squashCycles                7183781                       # Number of cycles decode is squashing (Cycle)
system.cpu.decode.branchResolved             23268489                       # Number of times decode resolved a branch (Count)
system.cpu.decode.branchMispred                   474                       # Number of times decode detected a branch misprediction (Count)
system.cpu.decode.decodedInsts             1139255475                       # Number of instructions handled by decode (Count)
system.cpu.decode.squashedInsts                  2335                       # Number of squashed instructions handled by decode (Count)
system.cpu.fetch.icacheStallCycles           96689154                       # Number of cycles fetch is stalled on an Icache miss (Cycle)
system.cpu.fetch.insts                      821978141                       # Number of instructions fetch has processed (Count)
system.cpu.fetch.branches                    24856926                       # Number of branches that fetch encountered (Count)
system.cpu.fetch.predictedBranches           24127206                       # Number of branches that fetch has predicted taken (Count)
system.cpu.fetch.cycles                     267658980                       # Number of cycles fetch has run and was not squashing or blocked (Cycle)
system.cpu.fetch.squashCycles                14368492                       # Number of cycles fetch has spent squashing (Cycle)
system.cpu.fetch.miscStallCycles                   17                       # Number of cycles fetch has spent waiting on interrupts, or bad addresses, or out of MSHRs (Cycle)
system.cpu.fetch.pendingTrapStallCycles            72                       # Number of stall cycles due to pending traps (Cycle)
system.cpu.fetch.cacheLines                  93539485                       # Number of cache lines fetched (Count)
system.cpu.fetch.icacheSquashes               3587784                       # Number of outstanding Icache misses that were squashed (Count)
system.cpu.fetch.nisnDist::samples          371532469                       # Number of instructions fetched each cycle (Total) (Count)
system.cpu.fetch.nisnDist::mean              3.232062                       # Number of instructions fetched each cycle (Total) (Count)
system.cpu.fetch.nisnDist::stdev             3.448091                       # Number of instructions fetched each cycle (Total) (Count)
system.cpu.fetch.nisnDist::underflows               0      0.00%      0.00% # Number of instructions fetched each cycle (Total) (Count)
system.cpu.fetch.nisnDist::0                171419249     46.14%     46.14% # Number of instructions fetched each cycle (Total) (Count)
system.cpu.fetch.nisnDist::1                  5725942      1.54%     47.68% # Number of instructions fetched each cycle (Total) (Count)
system.cpu.fetch.nisnDist::2                  3226800      0.87%     48.55% # Number of instructions fetched each cycle (Total) (Count)
system.cpu.fetch.nisnDist::3                 42925911     11.55%     60.10% # Number of instructions fetched each cycle (Total) (Count)
system.cpu.fetch.nisnDist::4                 20251557      5.45%     65.55% # Number of instructions fetched each cycle (Total) (Count)
system.cpu.fetch.nisnDist::5                  4114100      1.11%     66.66% # Number of instructions fetched each cycle (Total) (Count)
system.cpu.fetch.nisnDist::6                 14485577      3.90%     70.56% # Number of instructions fetched each cycle (Total) (Count)
system.cpu.fetch.nisnDist::7                  3698337      1.00%     71.55% # Number of instructions fetched each cycle (Total) (Count)
system.cpu.fetch.nisnDist::8                105684996     28.45%    100.00% # Number of instructions fetched each cycle (Total) (Count)
system.cpu.fetch.nisnDist::overflows                0      0.00%    100.00% # Number of instructions fetched each cycle (Total) (Count)
system.cpu.fetch.nisnDist::min_value                0                       # Number of instructions fetched each cycle (Total) (Count)
system.cpu.fetch.nisnDist::max_value                8                       # Number of instructions fetched each cycle (Total) (Count)
system.cpu.fetch.nisnDist::total            371532469                       # Number of instructions fetched each cycle (Total) (Count)
system.cpu.fetch.branchRate                  0.066901                       # Number of branch fetches per cycle (Ratio)
system.cpu.fetch.rate                        2.212321                       # Number of inst fetches per cycle ((Count/Cycle))
system.cpu.icache.demandHits::cpu.inst       93538626                       # number of demand (read+write) hits (Count)
system.cpu.icache.demandHits::total          93538626                       # number of demand (read+write) hits (Count)
system.cpu.icache.overallHits::cpu.inst      93538626                       # number of overall hits (Count)
system.cpu.icache.overallHits::total         93538626                       # number of overall hits (Count)
system.cpu.icache.demandMisses::cpu.inst          859                       # number of demand (read+write) misses (Count)
system.cpu.icache.demandMisses::total             859                       # number of demand (read+write) misses (Count)
system.cpu.icache.overallMisses::cpu.inst          859                       # number of overall misses (Count)
system.cpu.icache.overallMisses::total            859                       # number of overall misses (Count)
system.cpu.icache.demandMissLatency::cpu.inst     63652000                       # number of demand (read+write) miss ticks (Tick)
system.cpu.icache.demandMissLatency::total     63652000                       # number of demand (read+write) miss ticks (Tick)
system.cpu.icache.overallMissLatency::cpu.inst     63652000                       # number of overall miss ticks (Tick)
system.cpu.icache.overallMissLatency::total     63652000                       # number of overall miss ticks (Tick)
system.cpu.icache.demandAccesses::cpu.inst     93539485                       # number of demand (read+write) accesses (Count)
system.cpu.icache.demandAccesses::total      93539485                       # number of demand (read+write) accesses (Count)
system.cpu.icache.overallAccesses::cpu.inst     93539485                       # number of overall (read+write) accesses (Count)
system.cpu.icache.overallAccesses::total     93539485                       # number of overall (read+write) accesses (Count)
system.cpu.icache.demandMissRate::cpu.inst     0.000009                       # miss rate for demand accesses (Ratio)
system.cpu.icache.demandMissRate::total      0.000009                       # miss rate for demand accesses (Ratio)
system.cpu.icache.overallMissRate::cpu.inst     0.000009                       # miss rate for overall accesses (Ratio)
system.cpu.icache.overallMissRate::total     0.000009                       # miss rate for overall accesses (Ratio)
system.cpu.icache.demandAvgMissLatency::cpu.inst 74100.116414                       # average overall miss latency in ticks ((Tick/Count))
system.cpu.icache.demandAvgMissLatency::total 74100.116414                       # average overall miss latency in ticks ((Tick/Count))
system.cpu.icache.overallAvgMissLatency::cpu.inst 74100.116414                       # average overall miss latency ((Tick/Count))
system.cpu.icache.overallAvgMissLatency::total 74100.116414                       # average overall miss latency ((Tick/Count))
system.cpu.icache.blockedCycles::no_mshrs          149                       # number of cycles access was blocked (Cycle)
system.cpu.icache.blockedCycles::no_targets            0                       # number of cycles access was blocked (Cycle)
system.cpu.icache.blockedCauses::no_mshrs            8                       # number of times access was blocked (Count)
system.cpu.icache.blockedCauses::no_targets            0                       # number of times access was blocked (Count)
system.cpu.icache.avgBlocked::no_mshrs      18.625000                       # average number of cycles each access was blocked ((Cycle/Count))
system.cpu.icache.avgBlocked::no_targets          nan                       # average number of cycles each access was blocked ((Cycle/Count))
system.cpu.icache.demandMshrHits::cpu.inst          252                       # number of demand (read+write) MSHR hits (Count)
system.cpu.icache.demandMshrHits::total           252                       # number of demand (read+write) MSHR hits (Count)
system.cpu.icache.overallMshrHits::cpu.inst          252                       # number of overall MSHR hits (Count)
system.cpu.icache.overallMshrHits::total          252                       # number of overall MSHR hits (Count)
system.cpu.icache.demandMshrMisses::cpu.inst          607                       # number of demand (read+write) MSHR misses (Count)
system.cpu.icache.demandMshrMisses::total          607                       # number of demand (read+write) MSHR misses (Count)
system.cpu.icache.overallMshrMisses::cpu.inst          607                       # number of overall MSHR misses (Count)
system.cpu.icache.overallMshrMisses::total          607                       # number of overall MSHR misses (Count)
system.cpu.icache.demandMshrMissLatency::cpu.inst     50101000                       # number of demand (read+write) MSHR miss ticks (Tick)
system.cpu.icache.demandMshrMissLatency::total     50101000                       # number of demand (read+write) MSHR miss ticks (Tick)
system.cpu.icache.overallMshrMissLatency::cpu.inst     50101000                       # number of overall MSHR miss ticks (Tick)
system.cpu.icache.overallMshrMissLatency::total     50101000                       # number of overall MSHR miss ticks (Tick)
system.cpu.icache.demandMshrMissRate::cpu.inst     0.000006                       # mshr miss ratio for demand accesses (Ratio)
system.cpu.icache.demandMshrMissRate::total     0.000006                       # mshr miss ratio for demand accesses (Ratio)
system.cpu.icache.overallMshrMissRate::cpu.inst     0.000006                       # mshr miss ratio for overall accesses (Ratio)
system.cpu.icache.overallMshrMissRate::total     0.000006                       # mshr miss ratio for overall accesses (Ratio)
system.cpu.icache.demandAvgMshrMissLatency::cpu.inst 82538.714992                       # average overall mshr miss latency ((Tick/Count))
system.cpu.icache.demandAvgMshrMissLatency::total 82538.714992                       # average overall mshr miss latency ((Tick/Count))
system.cpu.icache.overallAvgMshrMissLatency::cpu.inst 82538.714992                       # average overall mshr miss latency ((Tick/Count))
system.cpu.icache.overallAvgMshrMissLatency::total 82538.714992                       # average overall mshr miss latency ((Tick/Count))
system.cpu.icache.replacements                     36                       # number of replacements (Count)
system.cpu.icache.ReadReq.hits::cpu.inst     93538626                       # number of ReadReq hits (Count)
system.cpu.icache.ReadReq.hits::total        93538626                       # number of ReadReq hits (Count)
system.cpu.icache.ReadReq.misses::cpu.inst          859                       # number of ReadReq misses (Count)
system.cpu.icache.ReadReq.misses::total           859                       # number of ReadReq misses (Count)
system.cpu.icache.ReadReq.missLatency::cpu.inst     63652000                       # number of ReadReq miss ticks (Tick)
system.cpu.icache.ReadReq.missLatency::total     63652000                       # number of ReadReq miss ticks (Tick)
system.cpu.icache.ReadReq.accesses::cpu.inst     93539485                       # number of ReadReq accesses(hits+misses) (Count)
system.cpu.icache.ReadReq.accesses::total     93539485                       # number of ReadReq accesses(hits+misses) (Count)
system.cpu.icache.ReadReq.missRate::cpu.inst     0.000009                       # miss rate for ReadReq accesses (Ratio)
system.cpu.icache.ReadReq.missRate::total     0.000009                       # miss rate for ReadReq accesses (Ratio)
system.cpu.icache.ReadReq.avgMissLatency::cpu.inst 74100.116414                       # average ReadReq miss latency ((Tick/Count))
system.cpu.icache.ReadReq.avgMissLatency::total 74100.116414                       # average ReadReq miss latency ((Tick/Count))
system.cpu.icache.ReadReq.mshrHits::cpu.inst          252                       # number of ReadReq MSHR hits (Count)
system.cpu.icache.ReadReq.mshrHits::total          252                       # number of ReadReq MSHR hits (Count)
system.cpu.icache.ReadReq.mshrMisses::cpu.inst          607                       # number of ReadReq MSHR misses (Count)
system.cpu.icache.ReadReq.mshrMisses::total          607                       # number of ReadReq MSHR misses (Count)
system.cpu.icache.ReadReq.mshrMissLatency::cpu.inst     50101000                       # number of ReadReq MSHR miss ticks (Tick)
system.cpu.icache.ReadReq.mshrMissLatency::total     50101000                       # number of ReadReq MSHR miss ticks (Tick)
system.cpu.icache.ReadReq.mshrMissRate::cpu.inst     0.000006                       # mshr miss rate for ReadReq accesses (Ratio)
system.cpu.icache.ReadReq.mshrMissRate::total     0.000006                       # mshr miss rate for ReadReq accesses (Ratio)
system.cpu.icache.ReadReq.avgMshrMissLatency::cpu.inst 82538.714992                       # average ReadReq mshr miss latency ((Tick/Count))
system.cpu.icache.ReadReq.avgMshrMissLatency::total 82538.714992                       # average ReadReq mshr miss latency ((Tick/Count))
system.cpu.icache.power_state.pwrStateResidencyTicks::UNDEFINED 371545523000                       # Cumulative time (in ticks) in various power states (Tick)
system.cpu.icache.prefetcher.demandMshrMisses          607                       # demands not covered by prefetchs (Count)
system.cpu.icache.prefetcher.pfIssued               0                       # number of hwpf issued (Count)
system.cpu.icache.prefetcher.pfUseful               0                       # number of useful prefetch (Count)
system.cpu.icache.prefetcher.pfUsefulButMiss            0                       # number of hit on prefetch but cache block is not in an usable state (Count)
system.cpu.icache.prefetcher.accuracy             nan                       # accuracy of the prefetcher (Count)
system.cpu.icache.prefetcher.coverage               0                       # coverage brought by this prefetcher (Count)
system.cpu.icache.prefetcher.pfHitInCache            0                       # number of prefetches hitting in cache (Count)
system.cpu.icache.prefetcher.pfHitInMSHR            0                       # number of prefetches hitting in a MSHR (Count)
system.cpu.icache.prefetcher.pfHitInWB              0                       # number of prefetches hit in the Write Buffer (Count)
system.cpu.icache.prefetcher.pfLate                 0                       # number of late prefetches (hitting in cache, MSHR or WB) (Count)
system.cpu.icache.prefetcher.pfIdentified            0                       # number of prefetch candidates identified (Count)
system.cpu.icache.prefetcher.pfBufferHit            0                       # number of redundant prefetches already in prefetch queue (Count)
system.cpu.icache.prefetcher.pfInCache              0                       # number of redundant prefetches already in cache/mshr dropped (Count)
system.cpu.icache.prefetcher.pfRemovedDemand            0                       # number of prefetches dropped due to a demand for the same address (Count)
system.cpu.icache.prefetcher.pfRemovedFull            0                       # number of prefetches dropped due to prefetch queue size (Count)
system.cpu.icache.prefetcher.pfSpanPage             0                       # number of prefetches that crossed the page (Count)
system.cpu.icache.prefetcher.pfUsefulSpanPage            0                       # number of prefetches that is useful and crossed the page (Count)
system.cpu.icache.prefetcher.power_state.pwrStateResidencyTicks::UNDEFINED 371545523000                       # Cumulative time (in ticks) in various power states (Tick)
system.cpu.icache.tags.tagsInUse           464.724024                       # Average ticks per tags in use ((Tick/Count))
system.cpu.icache.tags.totalRefs             93539233                       # Total number of references to valid blocks. (Count)
system.cpu.icache.tags.sampledRefs                607                       # Sample count of references to valid blocks. (Count)
system.cpu.icache.tags.avgRefs           154100.878089                       # Average number of references to valid blocks. ((Count/Count))
system.cpu.icache.tags.warmupTick               88000                       # The tick when the warmup percentage was hit. (Tick)
system.cpu.icache.tags.occupancies::cpu.inst   464.724024                       # Average occupied blocks per tick, per requestor ((Count/Tick))
system.cpu.icache.tags.avgOccs::cpu.inst     0.453832                       # Average percentage of cache occupancy ((Ratio/Tick))
[...]
system.mem_ctrl.dram.numWrites::writebacks      1123160                       # Number of write requests responded to by this memory (Count)
system.mem_ctrl.dram.numWrites::total         1123160                       # Number of write requests responded to by this memory (Count)
system.mem_ctrl.dram.bwRead::cpu.inst          103697                       # Total read bandwidth from this memory ((Byte/Second))
system.mem_ctrl.dram.bwRead::cpu.data       155999619                       # Total read bandwidth from this memory ((Byte/Second))
system.mem_ctrl.dram.bwRead::cpu.dcache.prefetcher    101063858                       # Total read bandwidth from this memory ((Byte/Second))
system.mem_ctrl.dram.bwRead::l2cache.prefetcher    109637602                       # Total read bandwidth from this memory ((Byte/Second))
system.mem_ctrl.dram.bwRead::total          366804775                       # Total read bandwidth from this memory ((Byte/Second))
system.mem_ctrl.dram.bwInstRead::cpu.inst       103697                       # Instruction read bandwidth from this memory ((Byte/Second))
system.mem_ctrl.dram.bwInstRead::total         103697                       # Instruction read bandwidth from this memory ((Byte/Second))
system.mem_ctrl.dram.bwWrite::writebacks    193468190                       # Write bandwidth from this memory ((Byte/Second))
system.mem_ctrl.dram.bwWrite::total         193468190                       # Write bandwidth from this memory ((Byte/Second))
system.mem_ctrl.dram.bwTotal::writebacks    193468190                       # Total bandwidth to/from this memory ((Byte/Second))
system.mem_ctrl.dram.bwTotal::cpu.inst         103697                       # Total bandwidth to/from this memory ((Byte/Second))
system.mem_ctrl.dram.bwTotal::cpu.data      155999619                       # Total bandwidth to/from this memory ((Byte/Second))
system.mem_ctrl.dram.bwTotal::cpu.dcache.prefetcher    101063858                       # Total bandwidth to/from this memory ((Byte/Second))
system.mem_ctrl.dram.bwTotal::l2cache.prefetcher    109637602                       # Total bandwidth to/from this memory ((Byte/Second))
system.mem_ctrl.dram.bwTotal::total         560272966                       # Total bandwidth to/from this memory ((Byte/Second))
system.mem_ctrl.dram.readBursts               2129448                       # Number of DRAM read bursts (Count)
system.mem_ctrl.dram.writeBursts              1123137                       # Number of DRAM write bursts (Count)
system.mem_ctrl.dram.perBankRdBursts::0        133175                       # Per bank write bursts (Count)
system.mem_ctrl.dram.perBankRdBursts::1        132887                       # Per bank write bursts (Count)
system.mem_ctrl.dram.perBankRdBursts::2        133001                       # Per bank write bursts (Count)
system.mem_ctrl.dram.perBankRdBursts::3        132936                       # Per bank write bursts (Count)
system.mem_ctrl.dram.perBankRdBursts::4        133441                       # Per bank write bursts (Count)
system.mem_ctrl.dram.perBankRdBursts::5        133489                       # Per bank write bursts (Count)
system.mem_ctrl.dram.perBankRdBursts::6        133366                       # Per bank write bursts (Count)
system.mem_ctrl.dram.perBankRdBursts::7        133312                       # Per bank write bursts (Count)
system.mem_ctrl.dram.perBankRdBursts::8        133260                       # Per bank write bursts (Count)
system.mem_ctrl.dram.perBankRdBursts::9        133134                       # Per bank write bursts (Count)
system.mem_ctrl.dram.perBankRdBursts::10       133014                       # Per bank write bursts (Count)
system.mem_ctrl.dram.perBankRdBursts::11       132901                       # Per bank write bursts (Count)
system.mem_ctrl.dram.perBankRdBursts::12       132828                       # Per bank write bursts (Count)
system.mem_ctrl.dram.perBankRdBursts::13       132847                       # Per bank write bursts (Count)
system.mem_ctrl.dram.perBankRdBursts::14       132968                       # Per bank write bursts (Count)
system.mem_ctrl.dram.perBankRdBursts::15       132889                       # Per bank write bursts (Count)
system.mem_ctrl.dram.perBankWrBursts::0         70367                       # Per bank write bursts (Count)
system.mem_ctrl.dram.perBankWrBursts::1         70276                       # Per bank write bursts (Count)
system.mem_ctrl.dram.perBankWrBursts::2         70307                       # Per bank write bursts (Count)
system.mem_ctrl.dram.perBankWrBursts::3         70297                       # Per bank write bursts (Count)
system.mem_ctrl.dram.perBankWrBursts::4         70169                       # Per bank write bursts (Count)
system.mem_ctrl.dram.perBankWrBursts::5         70144                       # Per bank write bursts (Count)
system.mem_ctrl.dram.perBankWrBursts::6         70144                       # Per bank write bursts (Count)
system.mem_ctrl.dram.perBankWrBursts::7         70144                       # Per bank write bursts (Count)
system.mem_ctrl.dram.perBankWrBursts::8         70144                       # Per bank write bursts (Count)
system.mem_ctrl.dram.perBankWrBursts::9         70144                       # Per bank write bursts (Count)
system.mem_ctrl.dram.perBankWrBursts::10        70144                       # Per bank write bursts (Count)
system.mem_ctrl.dram.perBankWrBursts::11        70144                       # Per bank write bursts (Count)
system.mem_ctrl.dram.perBankWrBursts::12        70080                       # Per bank write bursts (Count)
system.mem_ctrl.dram.perBankWrBursts::13        70133                       # Per bank write bursts (Count)
system.mem_ctrl.dram.perBankWrBursts::14        70273                       # Per bank write bursts (Count)
system.mem_ctrl.dram.perBankWrBursts::15        70227                       # Per bank write bursts (Count)
system.mem_ctrl.dram.totQLat              26610425469                       # Total ticks spent queuing (Tick)
system.mem_ctrl.dram.totBusLat            10647240000                       # Total ticks spent in databus transfers (Tick)
system.mem_ctrl.dram.totMemAccLat         66537575469                       # Total ticks spent from burst creation until serviced by the DRAM (Tick)
system.mem_ctrl.dram.avgQLat                 12496.40                       # Average queueing delay per DRAM burst ((Tick/Count))
system.mem_ctrl.dram.avgBusLat                5000.00                       # Average bus latency per DRAM burst ((Tick/Count))
system.mem_ctrl.dram.avgMemAccLat            31246.40                       # Average memory access latency per DRAM burst ((Tick/Count))
system.mem_ctrl.dram.readRowHits              1903970                       # Number of row buffer hits during reads (Count)
system.mem_ctrl.dram.writeRowHits             1000910                       # Number of row buffer hits during writes (Count)
system.mem_ctrl.dram.readRowHitRate             89.41                       # Row buffer hit rate for reads (Ratio)
system.mem_ctrl.dram.writeRowHitRate            89.12                       # Row buffer hit rate for writes (Ratio)
system.mem_ctrl.dram.bytesPerActivate::samples       347705                       # Bytes accessed per row activation (Byte)
system.mem_ctrl.dram.bytesPerActivate::mean   598.684057                       # Bytes accessed per row activation (Byte)
system.mem_ctrl.dram.bytesPerActivate::gmean   460.096363                       # Bytes accessed per row activation (Byte)
system.mem_ctrl.dram.bytesPerActivate::stdev   348.713174                       # Bytes accessed per row activation (Byte)
system.mem_ctrl.dram.bytesPerActivate::0-127        18737      5.39%      5.39% # Bytes accessed per row activation (Byte)
system.mem_ctrl.dram.bytesPerActivate::128-255        52582     15.12%     20.51% # Bytes accessed per row activation (Byte)
system.mem_ctrl.dram.bytesPerActivate::256-383        30854      8.87%     29.38% # Bytes accessed per row activation (Byte)
system.mem_ctrl.dram.bytesPerActivate::384-511        27745      7.98%     37.36% # Bytes accessed per row activation (Byte)
system.mem_ctrl.dram.bytesPerActivate::512-639        67742     19.48%     56.85% # Bytes accessed per row activation (Byte)
system.mem_ctrl.dram.bytesPerActivate::640-767        14526      4.18%     61.02% # Bytes accessed per row activation (Byte)
system.mem_ctrl.dram.bytesPerActivate::768-895        12656      3.64%     64.66% # Bytes accessed per row activation (Byte)
system.mem_ctrl.dram.bytesPerActivate::896-1023        17262      4.96%     69.63% # Bytes accessed per row activation (Byte)
system.mem_ctrl.dram.bytesPerActivate::1024-1151       105601     30.37%    100.00% # Bytes accessed per row activation (Byte)
system.mem_ctrl.dram.bytesPerActivate::total       347705                       # Bytes accessed per row activation (Byte)
system.mem_ctrl.dram.bytesRead              136284672                       # Total bytes read (Byte)
system.mem_ctrl.dram.bytesWritten            71880768                       # Total bytes written (Byte)
system.mem_ctrl.dram.avgRdBW               366.804775                       # Average DRAM read bandwidth in MiBytes/s ((Byte/Second))
system.mem_ctrl.dram.avgWrBW               193.464229                       # Average DRAM write bandwidth in MiBytes/s ((Byte/Second))
system.mem_ctrl.dram.peakBW                  12800.00                       # Theoretical peak bandwidth in MiByte/s ((Byte/Second))
system.mem_ctrl.dram.busUtil                     4.38                       # Data bus utilization in percentage (Ratio)
system.mem_ctrl.dram.busUtilRead                 2.87                       # Data bus utilization in percentage for reads (Ratio)
system.mem_ctrl.dram.busUtilWrite                1.51                       # Data bus utilization in percentage for writes (Ratio)
system.mem_ctrl.dram.pageHitRate                89.31                       # Row buffer hit rate, read and write combined (Ratio)
system.mem_ctrl.dram.power_state.pwrStateResidencyTicks::UNDEFINED 371545523000                       # Cumulative time (in ticks) in various power states (Tick)
system.mem_ctrl.dram.rank0.actEnergy       1241838780                       # Energy for activate commands per rank (pJ) (Joule)
system.mem_ctrl.dram.rank0.preEnergy        660052965                       # Energy for precharge commands per rank (pJ) (Joule)
system.mem_ctrl.dram.rank0.readEnergy      7608433980                       # Energy for read commands per rank (pJ) (Joule)
system.mem_ctrl.dram.rank0.writeEnergy     2932846560                       # Energy for write commands per rank (pJ) (Joule)
system.mem_ctrl.dram.rank0.refreshEnergy 29329391520.000004                       # Energy for refresh commands per rank (pJ) (Joule)
system.mem_ctrl.dram.rank0.actBackEnergy 118033674540                       # Energy for active background per rank (pJ) (Joule)
system.mem_ctrl.dram.rank0.preBackEnergy  43276702560                       # Energy for precharge background per rank (pJ) (Joule)
system.mem_ctrl.dram.rank0.actPowerDownEnergy            0                       # Energy for active power-down per rank (pJ) (Joule)
system.mem_ctrl.dram.rank0.prePowerDownEnergy            0                       # Energy for precharge power-down per rank (pJ) (Joule)
system.mem_ctrl.dram.rank0.selfRefreshEnergy            0                       # Energy for self refresh per rank (pJ) (Joule)
system.mem_ctrl.dram.rank0.totalEnergy   203082940905                       # Total energy per rank (pJ) (Joule)
system.mem_ctrl.dram.rank0.averagePower    546.589659                       # Core power per rank (mW) (Watt)
system.mem_ctrl.dram.rank0.totalIdleTime            0                       # Total Idle time Per DRAM Rank (Tick)
system.mem_ctrl.dram.rank0.pwrStateTime::IDLE 110878765124                       # Time in different power states (Tick)
system.mem_ctrl.dram.rank0.pwrStateTime::REF  12406680000                       # Time in different power states (Tick)
system.mem_ctrl.dram.rank0.pwrStateTime::SREF            0                       # Time in different power states (Tick)
system.mem_ctrl.dram.rank0.pwrStateTime::PRE_PDN            0                       # Time in different power states (Tick)
system.mem_ctrl.dram.rank0.pwrStateTime::ACT 248260077876                       # Time in different power states (Tick)
system.mem_ctrl.dram.rank0.pwrStateTime::ACT_PDN            0                       # Time in different power states (Tick)
system.mem_ctrl.dram.rank1.actEnergy       1240774920                       # Energy for activate commands per rank (pJ) (Joule)
system.mem_ctrl.dram.rank1.preEnergy        659487510                       # Energy for precharge commands per rank (pJ) (Joule)
system.mem_ctrl.dram.rank1.readEnergy      7595824740                       # Energy for read commands per rank (pJ) (Joule)
system.mem_ctrl.dram.rank1.writeEnergy     2929928580                       # Energy for write commands per rank (pJ) (Joule)
system.mem_ctrl.dram.rank1.refreshEnergy 29329391520.000004                       # Energy for refresh commands per rank (pJ) (Joule)
system.mem_ctrl.dram.rank1.actBackEnergy 117721512900                       # Energy for active background per rank (pJ) (Joule)
system.mem_ctrl.dram.rank1.preBackEnergy  43539575520                       # Energy for precharge background per rank (pJ) (Joule)
system.mem_ctrl.dram.rank1.actPowerDownEnergy            0                       # Energy for active power-down per rank (pJ) (Joule)
system.mem_ctrl.dram.rank1.prePowerDownEnergy            0                       # Energy for precharge power-down per rank (pJ) (Joule)
system.mem_ctrl.dram.rank1.selfRefreshEnergy            0                       # Energy for self refresh per rank (pJ) (Joule)
system.mem_ctrl.dram.rank1.totalEnergy   203016495690                       # Total energy per rank (pJ) (Joule)
system.mem_ctrl.dram.rank1.averagePower    546.410825                       # Core power per rank (mW) (Watt)
system.mem_ctrl.dram.rank1.totalIdleTime            0                       # Total Idle time Per DRAM Rank (Tick)
system.mem_ctrl.dram.rank1.pwrStateTime::IDLE 111566795122                       # Time in different power states (Tick)
system.mem_ctrl.dram.rank1.pwrStateTime::REF  12406680000                       # Time in different power states (Tick)
system.mem_ctrl.dram.rank1.pwrStateTime::SREF            0                       # Time in different power states (Tick)
system.mem_ctrl.dram.rank1.pwrStateTime::PRE_PDN            0                       # Time in different power states (Tick)
system.mem_ctrl.dram.rank1.pwrStateTime::ACT 247572047878                       # Time in different power states (Tick)
system.mem_ctrl.dram.rank1.pwrStateTime::ACT_PDN            0                       # Time in different power states (Tick)
system.mem_ctrl.power_state.pwrStateResidencyTicks::UNDEFINED 371545523000                       # Cumulative time (in ticks) in various power states (Tick)
system.membus.transDist::ReadResp             1686480                       # Transaction distribution (Count)
system.membus.transDist::WritebackDirty       1123160                       # Transaction distribution (Count)
system.membus.transDist::CleanEvict           1001505                       # Transaction distribution (Count)
system.membus.transDist::ReadExReq             442968                       # Transaction distribution (Count)
system.membus.transDist::ReadExResp            442968                       # Transaction distribution (Count)
system.membus.transDist::ReadSharedReq        1686480                       # Transaction distribution (Count)
system.membus.pktCount_system.l2cache.mem_side_port::system.mem_ctrl.port      6383561                       # Packet count per connected requestor and responder (Count)
system.membus.pktCount_system.l2cache.mem_side_port::total      6383561                       # Packet count per connected requestor and responder (Count)
system.membus.pktCount::total                 6383561                       # Packet count per connected requestor and responder (Count)
system.membus.pktSize_system.l2cache.mem_side_port::system.mem_ctrl.port    208166912                       # Cumulative packet size per connected requestor and responder (Byte)
system.membus.pktSize_system.l2cache.mem_side_port::total    208166912                       # Cumulative packet size per connected requestor and responder (Byte)
system.membus.pktSize::total                208166912                       # Cumulative packet size per connected requestor and responder (Byte)
system.membus.snoops                                0                       # Total snoops (Count)
system.membus.snoopTraffic                          0                       # Total snoop traffic (Byte)
system.membus.snoopFanout::samples            2129448                       # Request fanout histogram (Count)
system.membus.snoopFanout::mean                     0                       # Request fanout histogram (Count)
system.membus.snoopFanout::stdev                    0                       # Request fanout histogram (Count)
system.membus.snoopFanout::underflows               0      0.00%      0.00% # Request fanout histogram (Count)
system.membus.snoopFanout::0                  2129448    100.00%    100.00% # Request fanout histogram (Count)
system.membus.snoopFanout::1                        0      0.00%    100.00% # Request fanout histogram (Count)
system.membus.snoopFanout::overflows                0      0.00%    100.00% # Request fanout histogram (Count)
system.membus.snoopFanout::min_value                0                       # Request fanout histogram (Count)
system.membus.snoopFanout::max_value                0                       # Request fanout histogram (Count)
system.membus.snoopFanout::total              2129448                       # Request fanout histogram (Count)
system.membus.power_state.pwrStateResidencyTicks::UNDEFINED 371545523000                       # Cumulative time (in ticks) in various power states (Tick)
system.membus.reqLayer2.occupancy          8784518028                       # Layer occupancy (ticks) (Tick)
system.membus.reqLayer2.utilization               0.0                       # Layer utilization (Ratio)
system.membus.respLayer0.occupancy        11027351550                       # Layer occupancy (ticks) (Tick)
system.membus.respLayer0.utilization              0.0                       # Layer utilization (Ratio)
system.membus.snoop_filter.totRequests        4254113                       # Total number of requests made to the snoop filter. (Count)
system.membus.snoop_filter.hitSingleRequests      2124665                       # Number of requests hitting in the snoop filter with a single holder of the requested data. (Count)
system.membus.snoop_filter.hitMultiRequests            0                       # Number of requests hitting in the snoop filter with multiple (>1) holders of the requested data. (Count)
system.membus.snoop_filter.totSnoops                0                       # Total number of snoops made to the snoop filter. (Count)
system.membus.snoop_filter.hitSingleSnoops            0                       # Number of snoops hitting in the snoop filter with a single holder of the requested data. (Count)
system.membus.snoop_filter.hitMultiSnoops            0                       # Number of snoops hitting in the snoop filter with multiple (>1) holders of the requested data. (Count)
system.workload.inst.arm                            0                       # number of arm instructions executed (Count)
system.workload.inst.quiesce                        0                       # number of quiesce instructions executed (Count)

---------- End Simulation Statistics   ----------
