
---------- Begin Simulation Statistics ----------
simSeconds                                   0.067336                       # Number of seconds simulated (Second)
simTicks                                  67336461000                       # Number of ticks simulated (Tick)
finalTick                                 67336461000                       # Number of ticks from beginning of simulation (restored from checkpoints and never reset) (Tick)
simFreq                                  1000000000000                       # The number of ticks per simulated second ((Tick/Second))
hostSeconds                                    323.64                       # Real time elapsed on the host (Second)
hostTickRate                                208061585                       # The number of ticks simulated per host second (ticks/s) ((Tick/Second))
hostMemory                                    8540580                       # Number of bytes of host memory used (Byte)
simInsts                                     50000000                       # Number of instructions simulated (Count)
simOps                                       65070784                       # Number of ops (including micro ops) simulated (Count)
hostInstRate                                   154494                       # Simulator instruction rate (inst/s) ((Count/Second))
hostOpRate                                     201061                       # Simulator op (including micro ops) rate (op/s) ((Count/Second))
system.clk_domain.clock                          1000                       # Clock period in ticks (Tick)
system.clk_domain.voltage_domain.voltage            1                       # Voltage in Volts (Volt)
system.cpu.numCycles                         67336495                       # Number of cpu cycles simulated (Cycle)
system.cpu.numWorkItemsStarted                      0                       # Number of work items this cpu started (Count)
system.cpu.numWorkItemsCompleted                    0                       # Number of work items this cpu completed (Count)
system.cpu.instsAdded                        85945585                       # Number of instructions added to the IQ (excludes non-spec) (Count)
system.cpu.nonSpecInstsAdded                     1231                       # Number of non-speculative instructions added to the IQ (Count)
system.cpu.instsIssued                       75668413                       # Number of instructions issued (Count)
system.cpu.squashedInstsIssued                  10813                       # Number of squashed instructions issued (Count)
system.cpu.squashedInstsExamined             20875901                       # Number of squashed instructions iterated over during squash; mainly for profiling (Count)
system.cpu.squashedOperandsExamined          49064779                       # Number of squashed operands that are examined and possibly removed from graph (Count)
system.cpu.squashedNonSpecRemoved                 901                       # Number of squashed non-spec instructions that were removed (Count)
system.cpu.numIssuedDist::samples            67302852                       # Number of insts issued each cycle (Count)
system.cpu.numIssuedDist::mean               1.124297                       # Number of insts issued each cycle (Count)
system.cpu.numIssuedDist::stdev              1.304637                       # Number of insts issued each cycle (Count)
system.cpu.numIssuedDist::underflows                0      0.00%      0.00% # Number of insts issued each cycle (Count)
system.cpu.numIssuedDist::0                  29229759     43.43%     43.43% # Number of insts issued each cycle (Count)
system.cpu.numIssuedDist::1                  16818630     24.99%     68.42% # Number of insts issued each cycle (Count)
system.cpu.numIssuedDist::2                  10617732     15.78%     84.20% # Number of insts issued each cycle (Count)
system.cpu.numIssuedDist::3                   6740995     10.02%     94.21% # Number of insts issued each cycle (Count)
system.cpu.numIssuedDist::4                   2523134      3.75%     97.96% # Number of insts issued each cycle (Count)
system.cpu.numIssuedDist::5                   1024423      1.52%     99.48% # Number of insts issued each cycle (Count)
system.cpu.numIssuedDist::6                    268531      0.40%     99.88% # Number of insts issued each cycle (Count)
system.cpu.numIssuedDist::7                     71687      0.11%     99.99% # Number of insts issued each cycle (Count)
system.cpu.numIssuedDist::8                      7961      0.01%    100.00% # Number of insts issued each cycle (Count)
system.cpu.numIssuedDist::overflows                 0      0.00%    100.00% # Number of insts issued each cycle (Count)
system.cpu.numIssuedDist::min_value                 0                       # Number of insts issued each cycle (Count)
system.cpu.numIssuedDist::max_value                 8                       # Number of insts issued each cycle (Count)
system.cpu.numIssuedDist::total              67302852                       # Number of insts issued each cycle (Count)
system.cpu.statFuBusy::No_OpClass                   0      0.00%      0.00% # attempts to use FU when none available (Count)
system.cpu.statFuBusy::IntAlu                  219248     14.27%     14.27% # attempts to use FU when none available (Count)
system.cpu.statFuBusy::IntMult                      0      0.00%     14.27% # attempts to use FU when none available (Count)
system.cpu.statFuBusy::IntDiv                       0      0.00%     14.27% # attempts to use FU when none available (Count)
system.cpu.statFuBusy::FloatAdd                 40953      2.67%     16.93% # attempts to use FU when none available (Count)
system.cpu.statFuBusy::FloatCmp                     0      0.00%     16.93% # attempts to use FU when none available (Count)
system.cpu.statFuBusy::FloatCvt                     0      0.00%     16.93% # attempts to use FU when none available (Count)
system.cpu.statFuBusy::FloatMult                    0      0.00%     16.93% # attempts to use FU when none available (Count)
system.cpu.statFuBusy::FloatMultAcc                 0      0.00%     16.93% # attempts to use FU when none available (Count)
system.cpu.statFuBusy::FloatDiv                     0      0.00%     16.93% # attempts to use FU when none available (Count)
system.cpu.statFuBusy::FloatMisc                    0      0.00%     16.93% # attempts to use FU when none available (Count)
system.cpu.statFuBusy::FloatSqrt                    0      0.00%     16.93% # attempts to use FU when none available (Count)
system.cpu.statFuBusy::SimdAdd                      0      0.00%     16.93% # attempts to use FU when none available (Count)
system.cpu.statFuBusy::SimdAddAcc                   0      0.00%     16.93% # attempts to use FU when none available (Count)
system.cpu.statFuBusy::SimdAlu                    462      0.03%     16.96% # attempts to use FU when none available (Count)
system.cpu.statFuBusy::SimdCmp                      1      0.00%     16.96% # attempts to use FU when none available (Count)
system.cpu.statFuBusy::SimdCvt                   2231      0.15%     17.11% # attempts to use FU when none available (Count)
system.cpu.statFuBusy::SimdMisc                    15      0.00%     17.11% # attempts to use FU when none available (Count)
system.cpu.statFuBusy::SimdMult                     0      0.00%     17.11% # attempts to use FU when none available (Count)
system.cpu.statFuBusy::SimdMultAcc                  0      0.00%     17.11% # attempts to use FU when none available (Count)
system.cpu.statFuBusy::SimdShift                   18      0.00%     17.11% # attempts to use FU when none available (Count)
system.cpu.statFuBusy::SimdShiftAcc                 0      0.00%     17.11% # attempts to use FU when none available (Count)
system.cpu.statFuBusy::SimdDiv                      0      0.00%     17.11% # attempts to use FU when none available (Count)
system.cpu.statFuBusy::SimdSqrt                     0      0.00%     17.11% # attempts to use FU when none available (Count)
system.cpu.statFuBusy::SimdFloatAdd               309      0.02%     17.13% # attempts to use FU when none available (Count)
system.cpu.statFuBusy::SimdFloatAlu                 0      0.00%     17.13% # attempts to use FU when none available (Count)
system.cpu.statFuBusy::SimdFloatCmp                 0      0.00%     17.13% # attempts to use FU when none available (Count)
system.cpu.statFuBusy::SimdFloatCvt               172      0.01%     17.14% # attempts to use FU when none available (Count)
system.cpu.statFuBusy::SimdFloatDiv                 0      0.00%     17.14% # attempts to use FU when none available (Count)
system.cpu.statFuBusy::SimdFloatMisc                0      0.00%     17.14% # attempts to use FU when none available (Count)
system.cpu.statFuBusy::SimdFloatMult                4      0.00%     17.14% # attempts to use FU when none available (Count)
system.cpu.statFuBusy::SimdFloatMultAcc             0      0.00%     17.14% # attempts to use FU when none available (Count)
system.cpu.statFuBusy::SimdFloatSqrt                0      0.00%     17.14% # attempts to use FU when none available (Count)
system.cpu.statFuBusy::SimdReduceAdd                0      0.00%     17.14% # attempts to use FU when none available (Count)
system.cpu.statFuBusy::SimdReduceAlu                0      0.00%     17.14% # attempts to use FU when none available (Count)
system.cpu.statFuBusy::SimdReduceCmp                0      0.00%     17.14% # attempts to use FU when none available (Count)
system.cpu.statFuBusy::SimdFloatReduceAdd            0      0.00%     17.14% # attempts to use FU when none available (Count)
system.cpu.statFuBusy::SimdFloatReduceCmp            0      0.00%     17.14% # attempts to use FU when none available (Count)
system.cpu.statFuBusy::SimdAes                      0      0.00%     17.14% # attempts to use FU when none available (Count)
system.cpu.statFuBusy::SimdAesMix                   0      0.00%     17.14% # attempts to use FU when none available (Count)
system.cpu.statFuBusy::SimdSha1Hash                 0      0.00%     17.14% # attempts to use FU when none available (Count)
system.cpu.statFuBusy::SimdSha1Hash2                0      0.00%     17.14% # attempts to use FU when none available (Count)
system.cpu.statFuBusy::SimdSha256Hash               0      0.00%     17.14% # attempts to use FU when none available (Count)
system.cpu.statFuBusy::SimdSha256Hash2              0      0.00%     17.14% # attempts to use FU when none available (Count)
system.cpu.statFuBusy::SimdShaSigma2                0      0.00%     17.14% # attempts to use FU when none available (Count)
system.cpu.statFuBusy::SimdShaSigma3                0      0.00%     17.14% # attempts to use FU when none available (Count)
system.cpu.statFuBusy::SimdPredAlu                  0      0.00%     17.14% # attempts to use FU when none available (Count)
system.cpu.statFuBusy::MemRead                1072583     69.80%     86.95% # attempts to use FU when none available (Count)
system.cpu.statFuBusy::MemWrite                 32424      2.11%     89.06% # attempts to use FU when none available (Count)
system.cpu.statFuBusy::FloatMemRead            167984     10.93%     99.99% # attempts to use FU when none available (Count)
system.cpu.statFuBusy::FloatMemWrite              179      0.01%    100.00% # attempts to use FU when none available (Count)
system.cpu.statFuBusy::IprAccess                    0      0.00%    100.00% # attempts to use FU when none available (Count)
system.cpu.statFuBusy::InstPrefetch                 0      0.00%    100.00% # attempts to use FU when none available (Count)
system.cpu.statIssuedInstType_0::No_OpClass        20544      0.03%      0.03% # Number of instructions issued per FU type, per thread (Count)
system.cpu.statIssuedInstType_0::IntAlu      42448227     56.10%     56.12% # Number of instructions issued per FU type, per thread (Count)
system.cpu.statIssuedInstType_0::IntMult        70971      0.09%     56.22% # Number of instructions issued per FU type, per thread (Count)
system.cpu.statIssuedInstType_0::IntDiv        645665      0.85%     57.07% # Number of instructions issued per FU type, per thread (Count)
system.cpu.statIssuedInstType_0::FloatAdd      1430938      1.89%     58.96% # Number of instructions issued per FU type, per thread (Count)
system.cpu.statIssuedInstType_0::FloatCmp            0      0.00%     58.96% # Number of instructions issued per FU type, per thread (Count)
system.cpu.statIssuedInstType_0::FloatCvt            0      0.00%     58.96% # Number of instructions issued per FU type, per thread (Count)
system.cpu.statIssuedInstType_0::FloatMult            0      0.00%     58.96% # Number of instructions issued per FU type, per thread (Count)
system.cpu.statIssuedInstType_0::FloatMultAcc            0      0.00%     58.96% # Number of instructions issued per FU type, per thread (Count)
system.cpu.statIssuedInstType_0::FloatDiv            0      0.00%     58.96% # Number of instructions issued per FU type, per thread (Count)
system.cpu.statIssuedInstType_0::FloatMisc            0      0.00%     58.96% # Number of instructions issued per FU type, per thread (Count)
system.cpu.statIssuedInstType_0::FloatSqrt            0      0.00%     58.96% # Number of instructions issued per FU type, per thread (Count)
system.cpu.statIssuedInstType_0::SimdAdd          508      0.00%     58.96% # Number of instructions issued per FU type, per thread (Count)
system.cpu.statIssuedInstType_0::SimdAddAcc            0      0.00%     58.96% # Number of instructions issued per FU type, per thread (Count)
system.cpu.statIssuedInstType_0::SimdAlu        95712      0.13%     59.09% # Number of instructions issued per FU type, per thread (Count)
system.cpu.statIssuedInstType_0::SimdCmp          218      0.00%     59.09% # Number of instructions issued per FU type, per thread (Count)
system.cpu.statIssuedInstType_0::SimdCvt        99129      0.13%     59.22% # Number of instructions issued per FU type, per thread (Count)
system.cpu.statIssuedInstType_0::SimdMisc       216786      0.29%     59.51% # Number of instructions issued per FU type, per thread (Count)
system.cpu.statIssuedInstType_0::SimdMult            0      0.00%     59.51% # Number of instructions issued per FU type, per thread (Count)
system.cpu.statIssuedInstType_0::SimdMultAcc            0      0.00%     59.51% # Number of instructions issued per FU type, per thread (Count)
system.cpu.statIssuedInstType_0::SimdShift          192      0.00%     59.51% # Number of instructions issued per FU type, per thread (Count)
system.cpu.statIssuedInstType_0::SimdShiftAcc            0      0.00%     59.51% # Number of instructions issued per FU type, per thread (Count)
system.cpu.statIssuedInstType_0::SimdDiv            0      0.00%     59.51% # Number of instructions issued per FU type, per thread (Count)
system.cpu.statIssuedInstType_0::SimdSqrt            0      0.00%     59.51% # Number of instructions issued per FU type, per thread (Count)
system.cpu.statIssuedInstType_0::SimdFloatAdd       187719      0.25%     59.76% # Number of instructions issued per FU type, per thread (Count)
system.cpu.statIssuedInstType_0::SimdFloatAlu            0      0.00%     59.76% # Number of instructions issued per FU type, per thread (Count)
system.cpu.statIssuedInstType_0::SimdFloatCmp            0      0.00%     59.76% # Number of instructions issued per FU type, per thread (Count)
system.cpu.statIssuedInstType_0::SimdFloatCvt       304521      0.40%     60.16% # Number of instructions issued per FU type, per thread (Count)
system.cpu.statIssuedInstType_0::SimdFloatDiv        37465      0.05%     60.21% # Number of instructions issued per FU type, per thread (Count)
system.cpu.statIssuedInstType_0::SimdFloatMisc            0      0.00%     60.21% # Number of instructions issued per FU type, per thread (Count)
system.cpu.statIssuedInstType_0::SimdFloatMult        38720      0.05%     60.26% # Number of instructions issued per FU type, per thread (Count)
system.cpu.statIssuedInstType_0::SimdFloatMultAcc            0      0.00%     60.26% # Number of instructions issued per FU type, per thread (Count)
system.cpu.statIssuedInstType_0::SimdFloatSqrt            0      0.00%     60.26% # Number of instructions issued per FU type, per thread (Count)
system.cpu.statIssuedInstType_0::SimdReduceAdd            0      0.00%     60.26% # Number of instructions issued per FU type, per thread (Count)
system.cpu.statIssuedInstType_0::SimdReduceAlu            0      0.00%     60.26% # Number of instructions issued per FU type, per thread (Count)
system.cpu.statIssuedInstType_0::SimdReduceCmp            0      0.00%     60.26% # Number of instructions issued per FU type, per thread (Count)
system.cpu.statIssuedInstType_0::SimdFloatReduceAdd            0      0.00%     60.26% # Number of instructions issued per FU type, per thread (Count)
system.cpu.statIssuedInstType_0::SimdFloatReduceCmp            0      0.00%     60.26% # Number of instructions issued per FU type, per thread (Count)
system.cpu.statIssuedInstType_0::SimdAes            0      0.00%     60.26% # Number of instructions issued per FU type, per thread (Count)
system.cpu.statIssuedInstType_0::SimdAesMix            0      0.00%     60.26% # Number of instructions issued per FU type, per thread (Count)
system.cpu.statIssuedInstType_0::SimdSha1Hash            0      0.00%     60.26% # Number of instructions issued per FU type, per thread (Count)
system.cpu.statIssuedInstType_0::SimdSha1Hash2            0      0.00%     60.26% # Number of instructions issued per FU type, per thread (Count)
system.cpu.statIssuedInstType_0::SimdSha256Hash            0      0.00%     60.26% # Number of instructions issued per FU type, per thread (Count)
system.cpu.statIssuedInstType_0::SimdSha256Hash2            0      0.00%     60.26% # Number of instructions issued per FU type, per thread (Count)
system.cpu.statIssuedInstType_0::SimdShaSigma2            0      0.00%     60.26% # Number of instructions issued per FU type, per thread (Count)
system.cpu.statIssuedInstType_0::SimdShaSigma3            0      0.00%     60.26% # Number of instructions issued per FU type, per thread (Count)
system.cpu.statIssuedInstType_0::SimdPredAlu            0      0.00%     60.26% # Number of instructions issued per FU type, per thread (Count)
system.cpu.statIssuedInstType_0::MemRead     25266385     33.39%     93.65% # Number of instructions issued per FU type, per thread (Count)
system.cpu.statIssuedInstType_0::MemWrite      3792661      5.01%     98.66% # Number of instructions issued per FU type, per thread (Count)
system.cpu.statIssuedInstType_0::FloatMemRead       811935      1.07%     99.74% # Number of instructions issued per FU type, per thread (Count)
system.cpu.statIssuedInstType_0::FloatMemWrite       200117      0.26%    100.00% # Number of instructions issued per FU type, per thread (Count)
system.cpu.statIssuedInstType_0::IprAccess            0      0.00%    100.00% # Number of instructions issued per FU type, per thread (Count)
system.cpu.statIssuedInstType_0::InstPrefetch            0      0.00%    100.00% # Number of instructions issued per FU type, per thread (Count)
system.cpu.statIssuedInstType_0::total       75668413                       # Number of instructions issued per FU type, per thread (Count)
system.cpu.issueRate                         1.123736                       # Inst issue rate ((Count/Cycle))
system.cpu.fuBusy                             1536583                       # FU busy when requested (Count)
system.cpu.fuBusyRate                        0.020307                       # FU busy rate (busy events/executed inst) ((Count/Count))
system.cpu.intInstQueueReads                212872582                       # Number of integer instruction queue reads (Count)
system.cpu.intInstQueueWrites               101628075                       # Number of integer instruction queue writes (Count)
system.cpu.intInstQueueWakeupAccesses        71509728                       # Number of integer instruction queue wakeup accesses (Count)
system.cpu.fpInstQueueReads                   7314489                       # Number of floating instruction queue reads (Count)
system.cpu.fpInstQueueWrites                  5202541                       # Number of floating instruction queue writes (Count)
system.cpu.fpInstQueueWakeupAccesses          3520174                       # Number of floating instruction queue wakeup accesses (Count)
system.cpu.vecInstQueueReads                        0                       # Number of vector instruction queue reads (Count)
system.cpu.vecInstQueueWrites                       0                       # Number of vector instruction queue writes (Count)
system.cpu.vecInstQueueWakeupAccesses               0                       # Number of vector instruction queue wakeup accesses (Count)
system.cpu.intAluAccesses                    73420952                       # Number of integer alu accesses (Count)
system.cpu.fpAluAccesses                      3763500                       # Number of floating point alu accesses (Count)
system.cpu.vecAluAccesses                           0                       # Number of vector alu accesses (Count)
system.cpu.numInsts                          75111483                       # Number of executed instructions (Count)
system.cpu.numLoadInsts                      25684489                       # Number of load instructions executed (Count)
system.cpu.numSquashedInsts                    556927                       # Number of squashed instructions skipped in execute (Count)
system.cpu.numSwp                                   0                       # Number of swp insts executed (Count)
system.cpu.numNop                                   0                       # Number of nop insts executed (Count)
system.cpu.numRefs                           29616942                       # Number of memory reference insts executed (Count)
system.cpu.numBranches                        3090345                       # Number of branches executed (Count)
system.cpu.numStoreInsts                      3932453                       # Number of stores executed (Count)
system.cpu.numRate                           1.115465                       # Inst execution rate ((Count/Cycle))
system.cpu.timesIdled                             775                       # Number of times that the entire CPU went into an idle state and unscheduled itself (Count)
system.cpu.idleCycles                           33643                       # Total number of cycles that the CPU has spent unscheduled due to idling (Cycle)
system.cpu.committedInsts                    50000000                       # Number of Instructions Simulated (Count)
system.cpu.committedOps                      65070784                       # Number of Ops (including micro ops) Simulated (Count)
system.cpu.cpi                               1.346730                       # CPI: Cycles Per Instruction ((Cycle/Count))
system.cpu.totalCpi                          1.346730                       # CPI: Total CPI of All Threads ((Cycle/Count))
system.cpu.ipc                               0.742539                       # IPC: Instructions Per Cycle ((Count/Cycle))
system.cpu.totalIpc                          0.742539                       # IPC: Total IPC of All Threads ((Count/Cycle))
system.cpu.intRegfileReads                   96501290                       # Number of integer regfile reads (Count)
system.cpu.intRegfileWrites                  63352898                       # Number of integer regfile writes (Count)
system.cpu.fpRegfileReads                     2684880                       # Number of floating regfile reads (Count)
system.cpu.fpRegfileWrites                    3087871                       # Number of floating regfile writes (Count)
system.cpu.ccRegfileReads                    20226950                       # number of cc regfile reads (Count)
system.cpu.ccRegfileWrites                   28177386                       # number of cc regfile writes (Count)
system.cpu.miscRegfileReads                  36332605                       # number of misc regfile reads (Count)
system.cpu.MemDepUnit__0.insertedLoads       28883687                       # Number of loads inserted to the mem dependence unit. (Count)
system.cpu.MemDepUnit__0.insertedStores       4867717                       # Number of stores inserted to the mem dependence unit. (Count)
system.cpu.MemDepUnit__0.conflictingLoads      9906385                       # Number of conflicting loads. (Count)
system.cpu.MemDepUnit__0.conflictingStores      2033772                       # Number of conflicting stores. (Count)
system.cpu.MemDepUnit__1.insertedLoads              0                       # Number of loads inserted to the mem dependence unit. (Count)
system.cpu.MemDepUnit__1.insertedStores             0                       # Number of stores inserted to the mem dependence unit. (Count)
system.cpu.MemDepUnit__1.conflictingLoads            0                       # Number of conflicting loads. (Count)
system.cpu.MemDepUnit__1.conflictingStores            0                       # Number of conflicting stores. (Count)
system.cpu.MemDepUnit__2.insertedLoads              0                       # Number of loads inserted to the mem dependence unit. (Count)
system.cpu.MemDepUnit__2.insertedStores             0                       # Number of stores inserted to the mem dependence unit. (Count)
system.cpu.MemDepUnit__2.conflictingLoads            0                       # Number of conflicting loads. (Count)
system.cpu.MemDepUnit__2.conflictingStores            0                       # Number of conflicting stores. (Count)
system.cpu.MemDepUnit__3.insertedLoads              0                       # Number of loads inserted to the mem dependence unit. (Count)
system.cpu.MemDepUnit__3.insertedStores             0                       # Number of stores inserted to the mem dependence unit. (Count)
system.cpu.MemDepUnit__3.conflictingLoads            0                       # Number of conflicting loads. (Count)
system.cpu.MemDepUnit__3.conflictingStores            0                       # Number of conflicting stores. (Count)
system.cpu.branchPred.lookups                 4209014                       # Number of BP lookups (Count)
system.cpu.branchPred.condPredicted           3871346                       # Number of conditional branches predicted (Count)
system.cpu.branchPred.condIncorrect            189580                       # Number of conditional branches incorrect (Count)
system.cpu.branchPred.BTBLookups              3154732                       # Number of BTB lookups (Count)
system.cpu.branchPred.BTBHits                 3148401                       # Number of BTB hits (Count)
system.cpu.branchPred.BTBHitRatio            0.997993                       # BTB Hit Ratio (Ratio)
system.cpu.branchPred.RASUsed                  110041                       # Number of times the RAS was used to get a target. (Count)
system.cpu.branchPred.RASIncorrect                 16                       # Number of incorrect RAS predictions. (Count)
system.cpu.branchPred.indirectLookups           21515                       # Number of indirect predictor lookups. (Count)
system.cpu.branchPred.indirectHits              20337                       # Number of indirect target hits. (Count)
system.cpu.branchPred.indirectMisses             1178                       # Number of indirect misses. (Count)
system.cpu.branchPred.indirectMispredicted          270                       # Number of mispredicted indirect branches. (Count)
system.cpu.commit.commitSquashedInsts        20875311                       # The number of squashed insts skipped by commit (Count)
system.cpu.commit.commitNonSpecStalls             330                       # The number of times commit has been forced to stall to communicate backwards (Count)
system.cpu.commit.branchMispredicts            187725                       # The number of times a branch was mispredicted (Count)
system.cpu.commit.numCommittedDist::samples     64568666                       # Number of insts commited each cycle (Count)
system.cpu.commit.numCommittedDist::mean     1.007776                       # Number of insts commited each cycle (Count)
system.cpu.commit.numCommittedDist::stdev     2.143788                       # Number of insts commited each cycle (Count)
system.cpu.commit.numCommittedDist::underflows            0      0.00%      0.00% # Number of insts commited each cycle (Count)
system.cpu.commit.numCommittedDist::0        45610632     70.64%     70.64% # Number of insts commited each cycle (Count)
system.cpu.commit.numCommittedDist::1         7160379     11.09%     81.73% # Number of insts commited each cycle (Count)
system.cpu.commit.numCommittedDist::2         2769781      4.29%     86.02% # Number of insts commited each cycle (Count)
system.cpu.commit.numCommittedDist::3         2557394      3.96%     89.98% # Number of insts commited each cycle (Count)
system.cpu.commit.numCommittedDist::4          615099      0.95%     90.93% # Number of insts commited each cycle (Count)
system.cpu.commit.numCommittedDist::5          609279      0.94%     91.88% # Number of insts commited each cycle (Count)
system.cpu.commit.numCommittedDist::6          948594      1.47%     93.34% # Number of insts commited each cycle (Count)
system.cpu.commit.numCommittedDist::7          879758      1.36%     94.71% # Number of insts commited each cycle (Count)
system.cpu.commit.numCommittedDist::8         3417750      5.29%    100.00% # Number of insts commited each cycle (Count)
system.cpu.commit.numCommittedDist::overflows            0      0.00%    100.00% # Number of insts commited each cycle (Count)
system.cpu.commit.numCommittedDist::min_value            0                       # Number of insts commited each cycle (Count)
system.cpu.commit.numCommittedDist::max_value            8                       # Number of insts commited each cycle (Count)
system.cpu.commit.numCommittedDist::total     64568666                       # Number of insts commited each cycle (Count)
system.cpu.commit.instsCommitted             50000000                       # Number of instructions committed (Count)
system.cpu.commit.opsCommitted               65070784                       # Number of ops (including micro ops) committed (Count)
system.cpu.commit.memRefs                    25501597                       # Number of memory references committed (Count)
system.cpu.commit.loads                      21862330                       # Number of loads committed (Count)
system.cpu.commit.amos                              0                       # Number of atomic instructions committed (Count)
system.cpu.commit.membars                         220                       # Number of memory barriers committed (Count)
system.cpu.commit.branches                    2860071                       # Number of branches committed (Count)
system.cpu.commit.vectorInstructions                0                       # Number of committed Vector instructions. (Count)
system.cpu.commit.floating                    3002095                       # Number of committed floating point instructions. (Count)
system.cpu.commit.integer                    62936733                       # Number of committed integer instructions. (Count)
system.cpu.commit.functionCalls                 82469                       # Number of function calls committed. (Count)
system.cpu.commit.committedInstType_0::No_OpClass        16302      0.03%      0.03% # Class of committed instruction (Count)
system.cpu.commit.committedInstType_0::IntAlu     36916456     56.73%     56.76% # Class of committed instruction (Count)
system.cpu.commit.committedInstType_0::IntMult        70750      0.11%     56.87% # Class of committed instruction (Count)
system.cpu.commit.committedInstType_0::IntDiv       629696      0.97%     57.83% # Class of committed instruction (Count)
system.cpu.commit.committedInstType_0::FloatAdd      1010332      1.55%     59.39% # Class of committed instruction (Count)
system.cpu.commit.committedInstType_0::FloatCmp            0      0.00%     59.39% # Class of committed instruction (Count)
system.cpu.commit.committedInstType_0::FloatCvt            0      0.00%     59.39% # Class of committed instruction (Count)
system.cpu.commit.committedInstType_0::FloatMult            0      0.00%     59.39% # Class of committed instruction (Count)
system.cpu.commit.committedInstType_0::FloatMultAcc            0      0.00%     59.39% # Class of committed instruction (Count)
system.cpu.commit.committedInstType_0::FloatDiv            0      0.00%     59.39% # Class of committed instruction (Count)
system.cpu.commit.committedInstType_0::FloatMisc            0      0.00%     59.39% # Class of committed instruction (Count)
system.cpu.commit.committedInstType_0::FloatSqrt            0      0.00%     59.39% # Class of committed instruction (Count)
system.cpu.commit.committedInstType_0::SimdAdd          450      0.00%     59.39% # Class of committed instruction (Count)
system.cpu.commit.committedInstType_0::SimdAddAcc            0      0.00%     59.39% # Class of committed instruction (Count)
system.cpu.commit.committedInstType_0::SimdAlu        88594      0.14%     59.52% # Class of committed instruction (Count)
system.cpu.commit.committedInstType_0::SimdCmp          204      0.00%     59.52% # Class of committed instruction (Count)
system.cpu.commit.committedInstType_0::SimdCvt        91788      0.14%     59.67% # Class of committed instruction (Count)
system.cpu.commit.committedInstType_0::SimdMisc       206377      0.32%     59.98% # Class of committed instruction (Count)
system.cpu.commit.committedInstType_0::SimdMult            0      0.00%     59.98% # Class of committed instruction (Count)
system.cpu.commit.committedInstType_0::SimdMultAcc            0      0.00%     59.98% # Class of committed instruction (Count)
system.cpu.commit.committedInstType_0::SimdShift          110      0.00%     59.98% # Class of committed instruction (Count)
system.cpu.commit.committedInstType_0::SimdShiftAcc            0      0.00%     59.98% # Class of committed instruction (Count)
system.cpu.commit.committedInstType_0::SimdDiv            0      0.00%     59.98% # Class of committed instruction (Count)
system.cpu.commit.committedInstType_0::SimdSqrt            0      0.00%     59.98% # Class of committed instruction (Count)
system.cpu.commit.committedInstType_0::SimdFloatAdd       185070      0.28%     60.27% # Class of committed instruction (Count)
system.cpu.commit.committedInstType_0::SimdFloatAlu            0      0.00%     60.27% # Class of committed instruction (Count)
system.cpu.commit.committedInstType_0::SimdFloatCmp            0      0.00%     60.27% # Class of committed instruction (Count)
system.cpu.commit.committedInstType_0::SimdFloatCvt       283363      0.44%     60.70% # Class of committed instruction (Count)
system.cpu.commit.committedInstType_0::SimdFloatDiv        32916      0.05%     60.75% # Class of committed instruction (Count)
system.cpu.commit.committedInstType_0::SimdFloatMisc            0      0.00%     60.75% # Class of committed instruction (Count)
system.cpu.commit.committedInstType_0::SimdFloatMult        36779      0.06%     60.81% # Class of committed instruction (Count)
system.cpu.commit.committedInstType_0::SimdFloatMultAcc            0      0.00%     60.81% # Class of committed instruction (Count)
system.cpu.commit.committedInstType_0::SimdFloatSqrt            0      0.00%     60.81% # Class of committed instruction (Count)
system.cpu.commit.committedInstType_0::SimdReduceAdd            0      0.00%     60.81% # Class of committed instruction (Count)
system.cpu.commit.committedInstType_0::SimdReduceAlu            0      0.00%     60.81% # Class of committed instruction (Count)
system.cpu.commit.committedInstType_0::SimdReduceCmp            0      0.00%     60.81% # Class of committed instruction (Count)
system.cpu.commit.committedInstType_0::SimdFloatReduceAdd            0      0.00%     60.81% # Class of committed instruction (Count)
system.cpu.commit.committedInstType_0::SimdFloatReduceCmp            0      0.00%     60.81% # Class of committed instruction (Count)
system.cpu.commit.committedInstType_0::SimdAes            0      0.00%     60.81% # Class of committed instruction (Count)
system.cpu.commit.committedInstType_0::SimdAesMix            0      0.00%     60.81% # Class of committed instruction (Count)
system.cpu.commit.committedInstType_0::SimdSha1Hash            0      0.00%     60.81% # Class of committed instruction (Count)
system.cpu.commit.committedInstType_0::SimdSha1Hash2            0      0.00%     60.81% # Class of committed instruction (Count)
system.cpu.commit.committedInstType_0::SimdSha256Hash            0      0.00%     60.81% # Class of committed instruction (Count)
system.cpu.commit.committedInstType_0::SimdSha256Hash2            0      0.00%     60.81% # Class of committed instruction (Count)
system.cpu.commit.committedInstType_0::SimdShaSigma2            0      0.00%     60.81% # Class of committed instruction (Count)
system.cpu.commit.committedInstType_0::SimdShaSigma3            0      0.00%     60.81% # Class of committed instruction (Count)
system.cpu.commit.committedInstType_0::SimdPredAlu            0      0.00%     60.81% # Class of committed instruction (Count)
system.cpu.commit.committedInstType_0::MemRead     21103147     32.43%     93.24% # Class of committed instruction (Count)
system.cpu.commit.committedInstType_0::MemWrite      3445331      5.29%     98.54% # Class of committed instruction (Count)
system.cpu.commit.committedInstType_0::FloatMemRead       759183      1.17%     99.70% # Class of committed instruction (Count)
system.cpu.commit.committedInstType_0::FloatMemWrite       193936      0.30%    100.00% # Class of committed instruction (Count)
system.cpu.commit.committedInstType_0::IprAccess            0      0.00%    100.00% # Class of committed instruction (Count)
system.cpu.commit.committedInstType_0::InstPrefetch            0      0.00%    100.00% # Class of committed instruction (Count)
system.cpu.commit.committedInstType_0::total     65070784                       # Class of committed instruction (Count)
system.cpu.commit.commitEligibleSamples       3417750                       # number cycles where commit BW limit reached (Cycle)
system.cpu.dcache.demandHits::cpu.data       24035242                       # number of demand (read+write) hits (Count)
system.cpu.dcache.demandHits::total          24035242                       # number of demand (read+write) hits (Count)
system.cpu.dcache.overallHits::cpu.data      24035522                       # number of overall hits (Count)
system.cpu.dcache.overallHits::total         24035522                       # number of overall hits (Count)
system.cpu.dcache.demandMisses::cpu.data        50706                       # number of demand (read+write) misses (Count)
system.cpu.dcache.demandMisses::total           50706                       # number of demand (read+write) misses (Count)
system.cpu.dcache.overallMisses::cpu.data        53354                       # number of overall misses (Count)
system.cpu.dcache.overallMisses::total          53354                       # number of overall misses (Count)
system.cpu.dcache.demandMissLatency::cpu.data    976498989                       # number of demand (read+write) miss ticks (Tick)
system.cpu.dcache.demandMissLatency::total    976498989                       # number of demand (read+write) miss ticks (Tick)
system.cpu.dcache.overallMissLatency::cpu.data    976498989                       # number of overall miss ticks (Tick)
system.cpu.dcache.overallMissLatency::total    976498989                       # number of overall miss ticks (Tick)
system.cpu.dcache.demandAccesses::cpu.data     24085948                       # number of demand (read+write) accesses (Count)
system.cpu.dcache.demandAccesses::total      24085948                       # number of demand (read+write) accesses (Count)
system.cpu.dcache.overallAccesses::cpu.data     24088876                       # number of overall (read+write) accesses (Count)
system.cpu.dcache.overallAccesses::total     24088876                       # number of overall (read+write) accesses (Count)
system.cpu.dcache.demandMissRate::cpu.data     0.002105                       # miss rate for demand accesses (Ratio)
system.cpu.dcache.demandMissRate::total      0.002105                       # miss rate for demand accesses (Ratio)
system.cpu.dcache.overallMissRate::cpu.data     0.002215                       # miss rate for overall accesses (Ratio)
system.cpu.dcache.overallMissRate::total     0.002215                       # miss rate for overall accesses (Ratio)
system.cpu.dcache.demandAvgMissLatency::cpu.data 19258.056029                       # average overall miss latency in ticks ((Tick/Count))
system.cpu.dcache.demandAvgMissLatency::total 19258.056029                       # average overall miss latency in ticks ((Tick/Count))
system.cpu.dcache.overallAvgMissLatency::cpu.data 18302.263916                       # average overall miss latency ((Tick/Count))
system.cpu.dcache.overallAvgMissLatency::total 18302.263916                       # average overall miss latency ((Tick/Count))
system.cpu.dcache.blockedCycles::no_mshrs         6075                       # number of cycles access was blocked (Cycle)
system.cpu.dcache.blockedCycles::no_targets           37                       # number of cycles access was blocked (Cycle)
system.cpu.dcache.blockedCauses::no_mshrs          474                       # number of times access was blocked (Count)
system.cpu.dcache.blockedCauses::no_targets            1                       # number of times access was blocked (Count)
system.cpu.dcache.avgBlocked::no_mshrs      12.816456                       # average number of cycles each access was blocked ((Cycle/Count))
system.cpu.dcache.avgBlocked::no_targets           37                       # average number of cycles each access was blocked ((Cycle/Count))
system.cpu.dcache.writebacks::writebacks        48071                       # number of writebacks (Count)
system.cpu.dcache.writebacks::total             48071                       # number of writebacks (Count)
system.cpu.dcache.demandMshrHits::cpu.data        15321                       # number of demand (read+write) MSHR hits (Count)
system.cpu.dcache.demandMshrHits::total         15321                       # number of demand (read+write) MSHR hits (Count)
system.cpu.dcache.overallMshrHits::cpu.data        15321                       # number of overall MSHR hits (Count)
system.cpu.dcache.overallMshrHits::total        15321                       # number of overall MSHR hits (Count)
system.cpu.dcache.demandMshrMisses::cpu.data        35385                       # number of demand (read+write) MSHR misses (Count)
system.cpu.dcache.demandMshrMisses::total        35385                       # number of demand (read+write) MSHR misses (Count)
system.cpu.dcache.overallMshrMisses::cpu.data        38033                       # number of overall MSHR misses (Count)
system.cpu.dcache.overallMshrMisses::cpu.dcache.prefetcher        12370                       # number of overall MSHR misses (Count)
system.cpu.dcache.overallMshrMisses::total        50403                       # number of overall MSHR misses (Count)
system.cpu.dcache.demandMshrMissLatency::cpu.data    681311990                       # number of demand (read+write) MSHR miss ticks (Tick)
system.cpu.dcache.demandMshrMissLatency::total    681311990                       # number of demand (read+write) MSHR miss ticks (Tick)
system.cpu.dcache.overallMshrMissLatency::cpu.data    740307990                       # number of overall MSHR miss ticks (Tick)
system.cpu.dcache.overallMshrMissLatency::cpu.dcache.prefetcher    199767834                       # number of overall MSHR miss ticks (Tick)
system.cpu.dcache.overallMshrMissLatency::total    940075824                       # number of overall MSHR miss ticks (Tick)
system.cpu.dcache.demandMshrMissRate::cpu.data     0.001469                       # mshr miss ratio for demand accesses (Ratio)
system.cpu.dcache.demandMshrMissRate::total     0.001469                       # mshr miss ratio for demand accesses (Ratio)
system.cpu.dcache.overallMshrMissRate::cpu.data     0.001579                       # mshr miss ratio for overall accesses (Ratio)
system.cpu.dcache.overallMshrMissRate::cpu.dcache.prefetcher          inf                       # mshr miss ratio for overall accesses (Ratio)
system.cpu.dcache.overallMshrMissRate::total     0.002092                       # mshr miss ratio for overall accesses (Ratio)
system.cpu.dcache.demandAvgMshrMissLatency::cpu.data 19254.259997                       # average overall mshr miss latency ((Tick/Count))
system.cpu.dcache.demandAvgMshrMissLatency::total 19254.259997                       # average overall mshr miss latency ((Tick/Count))
system.cpu.dcache.overallAvgMshrMissLatency::cpu.data 19464.885494                       # average overall mshr miss latency ((Tick/Count))
system.cpu.dcache.overallAvgMshrMissLatency::cpu.dcache.prefetcher 16149.380275                       # average overall mshr miss latency ((Tick/Count))
system.cpu.dcache.overallAvgMshrMissLatency::total 18651.187905                       # average overall mshr miss latency ((Tick/Count))
system.cpu.dcache.replacements                  49378                       # number of replacements (Count)
system.cpu.dcache.HardPFReq.mshrMisses::cpu.dcache.prefetcher        12370                       # number of HardPFReq MSHR misses (Count)
system.cpu.dcache.HardPFReq.mshrMisses::total        12370                       # number of HardPFReq MSHR misses (Count)
system.cpu.dcache.HardPFReq.mshrMissLatency::cpu.dcache.prefetcher    199767834                       # number of HardPFReq MSHR miss ticks (Tick)
system.cpu.dcache.HardPFReq.mshrMissLatency::total    199767834                       # number of HardPFReq MSHR miss ticks (Tick)
system.cpu.dcache.HardPFReq.mshrMissRate::cpu.dcache.prefetcher          inf                       # mshr miss rate for HardPFReq accesses (Ratio)
system.cpu.dcache.HardPFReq.mshrMissRate::total          inf                       # mshr miss rate for HardPFReq accesses (Ratio)
system.cpu.dcache.HardPFReq.avgMshrMissLatency::cpu.dcache.prefetcher 16149.380275                       # average HardPFReq mshr miss latency ((Tick/Count))
system.cpu.dcache.HardPFReq.avgMshrMissLatency::total 16149.380275                       # average HardPFReq mshr miss latency ((Tick/Count))
system.cpu.dcache.LockedRMWReadReq.hits::cpu.data          110                       # number of LockedRMWReadReq hits (Count)
system.cpu.dcache.LockedRMWReadReq.hits::total          110                       # number of LockedRMWReadReq hits (Count)
system.cpu.dcache.LockedRMWReadReq.accesses::cpu.data          110                       # number of LockedRMWReadReq accesses(hits+misses) (Count)
system.cpu.dcache.LockedRMWReadReq.accesses::total          110                       # number of LockedRMWReadReq accesses(hits+misses) (Count)
system.cpu.dcache.LockedRMWReadReq.mshrMissLatency::cpu.data       662000                       # number of LockedRMWReadReq MSHR miss ticks (Tick)
system.cpu.dcache.LockedRMWReadReq.mshrMissLatency::total       662000                       # number of LockedRMWReadReq MSHR miss ticks (Tick)
system.cpu.dcache.LockedRMWReadReq.avgMshrMissLatency::cpu.data          inf                       # average LockedRMWReadReq mshr miss latency ((Tick/Count))
system.cpu.dcache.LockedRMWReadReq.avgMshrMissLatency::total          inf                       # average LockedRMWReadReq mshr miss latency ((Tick/Count))
system.cpu.dcache.LockedRMWWriteReq.hits::cpu.data          110                       # number of LockedRMWWriteReq hits (Count)
system.cpu.dcache.LockedRMWWriteReq.hits::total          110                       # number of LockedRMWWriteReq hits (Count)
system.cpu.dcache.LockedRMWWriteReq.accesses::cpu.data          110                       # number of LockedRMWWriteReq accesses(hits+misses) (Count)
system.cpu.dcache.LockedRMWWriteReq.accesses::total          110                       # number of LockedRMWWriteReq accesses(hits+misses) (Count)
system.cpu.dcache.ReadReq.hits::cpu.data     20424380                       # number of ReadReq hits (Count)
system.cpu.dcache.ReadReq.hits::total        20424380                       # number of ReadReq hits (Count)
system.cpu.dcache.ReadReq.misses::cpu.data        22349                       # number of ReadReq misses (Count)
system.cpu.dcache.ReadReq.misses::total         22349                       # number of ReadReq misses (Count)
system.cpu.dcache.ReadReq.missLatency::cpu.data    413440000                       # number of ReadReq miss ticks (Tick)
system.cpu.dcache.ReadReq.missLatency::total    413440000                       # number of ReadReq miss ticks (Tick)
system.cpu.dcache.ReadReq.accesses::cpu.data     20446729                       # number of ReadReq accesses(hits+misses) (Count)
system.cpu.dcache.ReadReq.accesses::total     20446729                       # number of ReadReq accesses(hits+misses) (Count)
system.cpu.dcache.ReadReq.missRate::cpu.data     0.001093                       # miss rate for ReadReq accesses (Ratio)
system.cpu.dcache.ReadReq.missRate::total     0.001093                       # miss rate for ReadReq accesses (Ratio)
system.cpu.dcache.ReadReq.avgMissLatency::cpu.data 18499.261712                       # average ReadReq miss latency ((Tick/Count))
system.cpu.dcache.ReadReq.avgMissLatency::total 18499.261712                       # average ReadReq miss latency ((Tick/Count))
system.cpu.dcache.ReadReq.mshrHits::cpu.data        15238                       # number of ReadReq MSHR hits (Count)
system.cpu.dcache.ReadReq.mshrHits::total        15238                       # number of ReadReq MSHR hits (Count)
system.cpu.dcache.ReadReq.mshrMisses::cpu.data         7111                       # number of ReadReq MSHR misses (Count)
system.cpu.dcache.ReadReq.mshrMisses::total         7111                       # number of ReadReq MSHR misses (Count)
system.cpu.dcache.ReadReq.mshrMissLatency::cpu.data    149669000                       # number of ReadReq MSHR miss ticks (Tick)
system.cpu.dcache.ReadReq.mshrMissLatency::total    149669000                       # number of ReadReq MSHR miss ticks (Tick)
system.cpu.dcache.ReadReq.mshrMissRate::cpu.data     0.000348                       # mshr miss rate for ReadReq accesses (Ratio)
system.cpu.dcache.ReadReq.mshrMissRate::total     0.000348                       # mshr miss rate for ReadReq accesses (Ratio)
system.cpu.dcache.ReadReq.avgMshrMissLatency::cpu.data 21047.531993                       # average ReadReq mshr miss latency ((Tick/Count))
system.cpu.dcache.ReadReq.avgMshrMissLatency::total 21047.531993                       # average ReadReq mshr miss latency ((Tick/Count))
system.cpu.dcache.SoftPFReq.hits::cpu.data          280                       # number of SoftPFReq hits (Count)
system.cpu.dcache.SoftPFReq.hits::total           280                       # number of SoftPFReq hits (Count)
system.cpu.dcache.SoftPFReq.misses::cpu.data         2648                       # number of SoftPFReq misses (Count)
system.cpu.dcache.SoftPFReq.misses::total         2648                       # number of SoftPFReq misses (Count)
system.cpu.dcache.SoftPFReq.accesses::cpu.data         2928                       # number of SoftPFReq accesses(hits+misses) (Count)
system.cpu.dcache.SoftPFReq.accesses::total         2928                       # number of SoftPFReq accesses(hits+misses) (Count)
system.cpu.dcache.SoftPFReq.missRate::cpu.data     0.904372                       # miss rate for SoftPFReq accesses (Ratio)
system.cpu.dcache.SoftPFReq.missRate::total     0.904372                       # miss rate for SoftPFReq accesses (Ratio)
system.cpu.dcache.SoftPFReq.mshrMisses::cpu.data         2648                       # number of SoftPFReq MSHR misses (Count)
system.cpu.dcache.SoftPFReq.mshrMisses::total         2648                       # number of SoftPFReq MSHR misses (Count)
system.cpu.dcache.SoftPFReq.mshrMissLatency::cpu.data     58996000                       # number of SoftPFReq MSHR miss ticks (Tick)
system.cpu.dcache.SoftPFReq.mshrMissLatency::total     58996000                       # number of SoftPFReq MSHR miss ticks (Tick)
system.cpu.dcache.SoftPFReq.mshrMissRate::cpu.data     0.904372                       # mshr miss rate for SoftPFReq accesses (Ratio)
system.cpu.dcache.SoftPFReq.mshrMissRate::total     0.904372                       # mshr miss rate for SoftPFReq accesses (Ratio)
system.cpu.dcache.SoftPFReq.avgMshrMissLatency::cpu.data 22279.456193                       # average SoftPFReq mshr miss latency ((Tick/Count))
system.cpu.dcache.SoftPFReq.avgMshrMissLatency::total 22279.456193                       # average SoftPFReq mshr miss latency ((Tick/Count))
system.cpu.dcache.WriteReq.hits::cpu.data      3610862                       # number of WriteReq hits (Count)
system.cpu.dcache.WriteReq.hits::total        3610862                       # number of WriteReq hits (Count)
system.cpu.dcache.WriteReq.misses::cpu.data        28357                       # number of WriteReq misses (Count)
system.cpu.dcache.WriteReq.misses::total        28357                       # number of WriteReq misses (Count)
system.cpu.dcache.WriteReq.missLatency::cpu.data    563058989                       # number of WriteReq miss ticks (Tick)
system.cpu.dcache.WriteReq.missLatency::total    563058989                       # number of WriteReq miss ticks (Tick)
system.cpu.dcache.WriteReq.accesses::cpu.data      3639219                       # number of WriteReq accesses(hits+misses) (Count)
system.cpu.dcache.WriteReq.accesses::total      3639219                       # number of WriteReq accesses(hits+misses) (Count)
system.cpu.dcache.WriteReq.missRate::cpu.data     0.007792                       # miss rate for WriteReq accesses (Ratio)
system.cpu.dcache.WriteReq.missRate::total     0.007792                       # miss rate for WriteReq accesses (Ratio)
system.cpu.dcache.WriteReq.avgMissLatency::cpu.data 19856.084529                       # average WriteReq miss latency ((Tick/Count))
system.cpu.dcache.WriteReq.avgMissLatency::total 19856.084529                       # average WriteReq miss latency ((Tick/Count))
system.cpu.dcache.WriteReq.mshrHits::cpu.data           83                       # number of WriteReq MSHR hits (Count)
system.cpu.dcache.WriteReq.mshrHits::total           83                       # number of WriteReq MSHR hits (Count)
system.cpu.dcache.WriteReq.mshrMisses::cpu.data        28274                       # number of WriteReq MSHR misses (Count)
system.cpu.dcache.WriteReq.mshrMisses::total        28274                       # number of WriteReq MSHR misses (Count)
system.cpu.dcache.WriteReq.mshrMissLatency::cpu.data    531642990                       # number of WriteReq MSHR miss ticks (Tick)
system.cpu.dcache.WriteReq.mshrMissLatency::total    531642990                       # number of WriteReq MSHR miss ticks (Tick)
system.cpu.dcache.WriteReq.mshrMissRate::cpu.data     0.007769                       # mshr miss rate for WriteReq accesses (Ratio)
system.cpu.dcache.WriteReq.mshrMissRate::total     0.007769                       # mshr miss rate for WriteReq accesses (Ratio)
system.cpu.dcache.WriteReq.avgMshrMissLatency::cpu.data 18803.246445                       # average WriteReq mshr miss latency ((Tick/Count))
system.cpu.dcache.WriteReq.avgMshrMissLatency::total 18803.246445                       # average WriteReq mshr miss latency ((Tick/Count))
system.cpu.dcache.power_state.pwrStateResidencyTicks::UNDEFINED  67336461000                       # Cumulative time (in ticks) in various power states (Tick)
system.cpu.dcache.prefetcher.demandMshrMisses        35385                       # demands not covered by prefetchs (Count)
system.cpu.dcache.prefetcher.pfIssued           14072                       # number of hwpf issued (Count)
system.cpu.dcache.prefetcher.pfUnused             302                       # number of HardPF blocks evicted w/o reference (Count)
system.cpu.dcache.prefetcher.pfUseful           11519                       # number of useful prefetch (Count)
system.cpu.dcache.prefetcher.pfUsefulButMiss            0                       # number of hit on prefetch but cache block is not in an usable state (Count)
system.cpu.dcache.prefetcher.accuracy        0.818576                       # accuracy of the prefetcher (Count)
system.cpu.dcache.prefetcher.coverage        0.245587                       # coverage brought by this prefetcher (Count)
system.cpu.dcache.prefetcher.pfHitInCache         1653                       # number of prefetches hitting in cache (Count)
system.cpu.dcache.prefetcher.pfHitInMSHR           49                       # number of prefetches hitting in a MSHR (Count)
system.cpu.dcache.prefetcher.pfHitInWB              0                       # number of prefetches hit in the Write Buffer (Count)
system.cpu.dcache.prefetcher.pfLate              1702                       # number of late prefetches (hitting in cache, MSHR or WB) (Count)
system.cpu.dcache.prefetcher.pfIdentified        29918                       # number of prefetch candidates identified (Count)
system.cpu.dcache.prefetcher.pfBufferHit        11813                       # number of redundant prefetches already in prefetch queue (Count)
system.cpu.dcache.prefetcher.pfInCache              0                       # number of redundant prefetches already in cache/mshr dropped (Count)
system.cpu.dcache.prefetcher.pfRemovedDemand          481                       # number of prefetches dropped due to a demand for the same address (Count)
system.cpu.dcache.prefetcher.pfRemovedFull            0                       # number of prefetches dropped due to prefetch queue size (Count)
system.cpu.dcache.prefetcher.pfSpanPage          4798                       # number of prefetches that crossed the page (Count)
system.cpu.dcache.prefetcher.pfUsefulSpanPage            0                       # number of prefetches that is useful and crossed the page (Count)
system.cpu.dcache.prefetcher.power_state.pwrStateResidencyTicks::UNDEFINED  67336461000                       # Cumulative time (in ticks) in various power states (Tick)
system.cpu.dcache.tags.tagsInUse          1017.342508                       # Average ticks per tags in use ((Tick/Count))
system.cpu.dcache.tags.totalRefs             24086145                       # Total number of references to valid blocks. (Count)
system.cpu.dcache.tags.sampledRefs              50402                       # Sample count of references to valid blocks. (Count)
system.cpu.dcache.tags.avgRefs             477.880739                       # Average number of references to valid blocks. ((Count/Count))
system.cpu.dcache.tags.warmupTick              231000                       # The tick when the warmup percentage was hit. (Tick)
system.cpu.dcache.tags.occupancies::cpu.data   819.564792                       # Average occupied blocks per tick, per requestor ((Count/Tick))
system.cpu.dcache.tags.occupancies::cpu.dcache.prefetcher   197.777716                       # Average occupied blocks per tick, per requestor ((Count/Tick))
system.cpu.dcache.tags.avgOccs::cpu.data     0.800356                       # Average percentage of cache occupancy ((Ratio/Tick))
system.cpu.dcache.tags.avgOccs::cpu.dcache.prefetcher     0.193142                       # Average percentage of cache occupancy ((Ratio/Tick))
system.cpu.dcache.tags.avgOccs::total        0.993499                       # Average percentage of cache occupancy ((Ratio/Tick))
system.cpu.dcache.tags.occupanciesTaskId::1022          195                       # Occupied blocks per task id (Count)
system.cpu.dcache.tags.occupanciesTaskId::1024          829                       # Occupied blocks per task id (Count)
system.cpu.dcache.tags.ageTaskId_1022::2            1                       # Occupied blocks per task id, per block age (Count)
system.cpu.dcache.tags.ageTaskId_1022::3          194                       # Occupied blocks per task id, per block age (Count)
system.cpu.dcache.tags.ageTaskId_1024::0            8                       # Occupied blocks per task id, per block age (Count)
system.cpu.dcache.tags.ageTaskId_1024::1           13                       # Occupied blocks per task id, per block age (Count)
system.cpu.dcache.tags.ageTaskId_1024::2           57                       # Occupied blocks per task id, per block age (Count)
system.cpu.dcache.tags.ageTaskId_1024::3          751                       # Occupied blocks per task id, per block age (Count)
system.cpu.dcache.tags.ratioOccsTaskId::1022     0.190430                       # Ratio of occupied blocks and all blocks, per task id (Ratio)
system.cpu.dcache.tags.ratioOccsTaskId::1024     0.809570                       # Ratio of occupied blocks and all blocks, per task id (Ratio)
system.cpu.dcache.tags.tagAccesses           96406786                       # Number of tag accesses (Count)
system.cpu.dcache.tags.dataAccesses          96406786                       # Number of data accesses (Count)
system.cpu.dcache.tags.power_state.pwrStateResidencyTicks::UNDEFINED  67336461000                       # Cumulative time (in ticks) in various power states (Tick)
system.cpu.decode.idleCycles                  3578901                       # Number of cycles decode is idle (Cycle)
system.cpu.decode.blockedCycles              52230302                       # Number of cycles decode is blocked (Cycle)
system.cpu.decode.runCycles                   3336645                       # Number of cycles decode is running (Cycle)
system.cpu.decode.unblockCycles               7961690                       # Number of cycles decode is unblocking (Cycle)
system.cpu.decode.squashCycles                 195314                       # Number of cycles decode is squashing (Cycle)
system.cpu.decode.branchResolved              2888755                       # Number of times decode resolved a branch (Count)
system.cpu.decode.branchMispred                  1935                       # Number of times decode detected a branch misprediction (Count)
system.cpu.decode.decodedInsts               87743542                       # Number of instructions handled by decode (Count)
system.cpu.decode.squashedInsts                  7338                       # Number of squashed instructions handled by decode (Count)
system.cpu.fetch.icacheStallCycles            6734361                       # Number of cycles fetch is stalled on an Icache miss (Cycle)
system.cpu.fetch.insts                       71559569                       # Number of instructions fetch has processed (Count)
system.cpu.fetch.branches                     4209014                       # Number of branches that fetch encountered (Count)
system.cpu.fetch.predictedBranches            3278779                       # Number of branches that fetch has predicted taken (Count)
system.cpu.fetch.cycles                      60370730                       # Number of cycles fetch has run and was not squashing or blocked (Cycle)
system.cpu.fetch.squashCycles                  394434                       # Number of cycles fetch has spent squashing (Cycle)
system.cpu.fetch.miscStallCycles                   72                       # Number of cycles fetch has spent waiting on interrupts, or bad addresses, or out of MSHRs (Cycle)
system.cpu.fetch.pendingTrapStallCycles           445                       # Number of stall cycles due to pending traps (Cycle)
system.cpu.fetch.icacheWaitRetryStallCycles           27                       # Number of stall cycles due to full MSHR (Cycle)
system.cpu.fetch.cacheLines                   6563335                       # Number of cache lines fetched (Count)
system.cpu.fetch.icacheSquashes                 31744                       # Number of outstanding Icache misses that were squashed (Count)
system.cpu.fetch.nisnDist::samples           67302852                       # Number of instructions fetched each cycle (Total) (Count)
system.cpu.fetch.nisnDist::mean              1.402294                       # Number of instructions fetched each cycle (Total) (Count)
system.cpu.fetch.nisnDist::stdev             2.725093                       # Number of instructions fetched each cycle (Total) (Count)
system.cpu.fetch.nisnDist::underflows               0      0.00%      0.00% # Number of instructions fetched each cycle (Total) (Count)
system.cpu.fetch.nisnDist::0                 50025175     74.33%     74.33% # Number of instructions fetched each cycle (Total) (Count)
system.cpu.fetch.nisnDist::1                  1520468      2.26%     76.59% # Number of instructions fetched each cycle (Total) (Count)
system.cpu.fetch.nisnDist::2                  1993671      2.96%     79.55% # Number of instructions fetched each cycle (Total) (Count)
system.cpu.fetch.nisnDist::3                  1816724      2.70%     82.25% # Number of instructions fetched each cycle (Total) (Count)
system.cpu.fetch.nisnDist::4                  1112211      1.65%     83.90% # Number of instructions fetched each cycle (Total) (Count)
system.cpu.fetch.nisnDist::5                  1346123      2.00%     85.90% # Number of instructions fetched each cycle (Total) (Count)
system.cpu.fetch.nisnDist::6                  1296475      1.93%     87.83% # Number of instructions fetched each cycle (Total) (Count)
system.cpu.fetch.nisnDist::7                  1073977      1.60%     89.42% # Number of instructions fetched each cycle (Total) (Count)
system.cpu.fetch.nisnDist::8                  7118028     10.58%    100.00% # Number of instructions fetched each cycle (Total) (Count)
system.cpu.fetch.nisnDist::overflows                0      0.00%    100.00% # Number of instructions fetched each cycle (Total) (Count)
system.cpu.fetch.nisnDist::min_value                0                       # Number of instructions fetched each cycle (Total) (Count)
system.cpu.fetch.nisnDist::max_value                8                       # Number of instructions fetched each cycle (Total) (Count)
system.cpu.fetch.nisnDist::total             67302852                       # Number of instructions fetched each cycle (Total) (Count)
system.cpu.fetch.branchRate                  0.062507                       # Number of branch fetches per cycle (Ratio)
system.cpu.fetch.rate                        1.062716                       # Number of inst fetches per cycle ((Count/Cycle))
system.cpu.icache.demandHits::cpu.inst        6561081                       # number of demand (read+write) hits (Count)
system.cpu.icache.demandHits::total           6561081                       # number of demand (read+write) hits (Count)
system.cpu.icache.overallHits::cpu.inst       6561081                       # number of overall hits (Count)
system.cpu.icache.overallHits::total          6561081                       # number of overall hits (Count)
system.cpu.icache.demandMisses::cpu.inst         2254                       # number of demand (read+write) misses (Count)
system.cpu.icache.demandMisses::total            2254                       # number of demand (read+write) misses (Count)
system.cpu.icache.overallMisses::cpu.inst         2254                       # number of overall misses (Count)
system.cpu.icache.overallMisses::total           2254                       # number of overall misses (Count)
system.cpu.icache.demandMissLatency::cpu.inst    165617000                       # number of demand (read+write) miss ticks (Tick)
system.cpu.icache.demandMissLatency::total    165617000                       # number of demand (read+write) miss ticks (Tick)
system.cpu.icache.overallMissLatency::cpu.inst    165617000                       # number of overall miss ticks (Tick)
system.cpu.icache.overallMissLatency::total    165617000                       # number of overall miss ticks (Tick)
system.cpu.icache.demandAccesses::cpu.inst      6563335                       # number of demand (read+write) accesses (Count)
system.cpu.icache.demandAccesses::total       6563335                       # number of demand (read+write) accesses (Count)
system.cpu.icache.overallAccesses::cpu.inst      6563335                       # number of overall (read+write) accesses (Count)
system.cpu.icache.overallAccesses::total      6563335                       # number of overall (read+write) accesses (Count)
system.cpu.icache.demandMissRate::cpu.inst     0.000343                       # miss rate for demand accesses (Ratio)
system.cpu.icache.demandMissRate::total      0.000343                       # miss rate for demand accesses (Ratio)
system.cpu.icache.overallMissRate::cpu.inst     0.000343                       # miss rate for overall accesses (Ratio)
system.cpu.icache.overallMissRate::total     0.000343                       # miss rate for overall accesses (Ratio)
system.cpu.icache.demandAvgMissLatency::cpu.inst 73476.929902                       # average overall miss latency in ticks ((Tick/Count))
system.cpu.icache.demandAvgMissLatency::total 73476.929902                       # average overall miss latency in ticks ((Tick/Count))
system.cpu.icache.overallAvgMissLatency::cpu.inst 73476.929902                       # average overall miss latency ((Tick/Count))
system.cpu.icache.overallAvgMissLatency::total 73476.929902                       # average overall miss latency ((Tick/Count))
system.cpu.icache.blockedCycles::no_mshrs          254                       # number of cycles access was blocked (Cycle)
system.cpu.icache.blockedCycles::no_targets            0                       # number of cycles access was blocked (Cycle)
system.cpu.icache.blockedCauses::no_mshrs            6                       # number of times access was blocked (Count)
system.cpu.icache.blockedCauses::no_targets            0                       # number of times access was blocked (Count)
system.cpu.icache.avgBlocked::no_mshrs      42.333333                       # average number of cycles each access was blocked ((Cycle/Count))
system.cpu.icache.avgBlocked::no_targets          nan                       # average number of cycles each access was blocked ((Cycle/Count))
system.cpu.icache.demandMshrHits::cpu.inst          606                       # number of demand (read+write) MSHR hits (Count)
system.cpu.icache.demandMshrHits::total           606                       # number of demand (read+write) MSHR hits (Count)
system.cpu.icache.overallMshrHits::cpu.inst          606                       # number of overall MSHR hits (Count)
system.cpu.icache.overallMshrHits::total          606                       # number of overall MSHR hits (Count)
system.cpu.icache.demandMshrMisses::cpu.inst         1648                       # number of demand (read+write) MSHR misses (Count)
system.cpu.icache.demandMshrMisses::total         1648                       # number of demand (read+write) MSHR misses (Count)
system.cpu.icache.overallMshrMisses::cpu.inst         1648                       # number of overall MSHR misses (Count)
system.cpu.icache.overallMshrMisses::total         1648                       # number of overall MSHR misses (Count)
system.cpu.icache.demandMshrMissLatency::cpu.inst    130389000                       # number of demand (read+write) MSHR miss ticks (Tick)
system.cpu.icache.demandMshrMissLatency::total    130389000                       # number of demand (read+write) MSHR miss ticks (Tick)
system.cpu.icache.overallMshrMissLatency::cpu.inst    130389000                       # number of overall MSHR miss ticks (Tick)
system.cpu.icache.overallMshrMissLatency::total    130389000                       # number of overall MSHR miss ticks (Tick)
system.cpu.icache.demandMshrMissRate::cpu.inst     0.000251                       # mshr miss ratio for demand accesses (Ratio)
system.cpu.icache.demandMshrMissRate::total     0.000251                       # mshr miss ratio for demand accesses (Ratio)
system.cpu.icache.overallMshrMissRate::cpu.inst     0.000251                       # mshr miss ratio for overall accesses (Ratio)
system.cpu.icache.overallMshrMissRate::total     0.000251                       # mshr miss ratio for overall accesses (Ratio)
system.cpu.icache.demandAvgMshrMissLatency::cpu.inst 79119.538835                       # average overall mshr miss latency ((Tick/Count))
system.cpu.icache.demandAvgMshrMissLatency::total 79119.538835                       # average overall mshr miss latency ((Tick/Count))
system.cpu.icache.overallAvgMshrMissLatency::cpu.inst 79119.538835                       # average overall mshr miss latency ((Tick/Count))
system.cpu.icache.overallAvgMshrMissLatency::total 79119.538835                       # average overall mshr miss latency ((Tick/Count))
system.cpu.icache.replacements                    648                       # number of replacements (Count)
system.cpu.icache.ReadReq.hits::cpu.inst      6561081                       # number of ReadReq hits (Count)
system.cpu.icache.ReadReq.hits::total         6561081                       # number of ReadReq hits (Count)
system.cpu.icache.ReadReq.misses::cpu.inst         2254                       # number of ReadReq misses (Count)
system.cpu.icache.ReadReq.misses::total          2254                       # number of ReadReq misses (Count)
system.cpu.icache.ReadReq.missLatency::cpu.inst    165617000                       # number of ReadReq miss ticks (Tick)
system.cpu.icache.ReadReq.missLatency::total    165617000                       # number of ReadReq miss ticks (Tick)
system.cpu.icache.ReadReq.accesses::cpu.inst      6563335                       # number of ReadReq accesses(hits+misses) (Count)
system.cpu.icache.ReadReq.accesses::total      6563335                       # number of ReadReq accesses(hits+misses) (Count)
system.cpu.icache.ReadReq.missRate::cpu.inst     0.000343                       # miss rate for ReadReq accesses (Ratio)
system.cpu.icache.ReadReq.missRate::total     0.000343                       # miss rate for ReadReq accesses (Ratio)
system.cpu.icache.ReadReq.avgMissLatency::cpu.inst 73476.929902                       # average ReadReq miss latency ((Tick/Count))
system.cpu.icache.ReadReq.avgMissLatency::total 73476.929902                       # average ReadReq miss latency ((Tick/Count))
system.cpu.icache.ReadReq.mshrHits::cpu.inst          606                       # number of ReadReq MSHR hits (Count)
system.cpu.icache.ReadReq.mshrHits::total          606                       # number of ReadReq MSHR hits (Count)
system.cpu.icache.ReadReq.mshrMisses::cpu.inst         1648                       # number of ReadReq MSHR misses (Count)
system.cpu.icache.ReadReq.mshrMisses::total         1648                       # number of ReadReq MSHR misses (Count)
system.cpu.icache.ReadReq.mshrMissLatency::cpu.inst    130389000                       # number of ReadReq MSHR miss ticks (Tick)
system.cpu.icache.ReadReq.mshrMissLatency::total    130389000                       # number of ReadReq MSHR miss ticks (Tick)
system.cpu.icache.ReadReq.mshrMissRate::cpu.inst     0.000251                       # mshr miss rate for ReadReq accesses (Ratio)
system.cpu.icache.ReadReq.mshrMissRate::total     0.000251                       # mshr miss rate for ReadReq accesses (Ratio)
system.cpu.icache.ReadReq.avgMshrMissLatency::cpu.inst 79119.538835                       # average ReadReq mshr miss latency ((Tick/Count))
system.cpu.icache.ReadReq.avgMshrMissLatency::total 79119.538835                       # average ReadReq mshr miss latency ((Tick/Count))
system.cpu.icache.power_state.pwrStateResidencyTicks::UNDEFINED  67336461000                       # Cumulative time (in ticks) in various power states (Tick)
system.cpu.icache.prefetcher.demandMshrMisses         1648                       # demands not covered by prefetchs (Count)
system.cpu.icache.prefetcher.pfIssued               0                       # number of hwpf issued (Count)
system.cpu.icache.prefetcher.pfUseful               0                       # number of useful prefetch (Count)
system.cpu.icache.prefetcher.pfUsefulButMiss            0                       # number of hit on prefetch but cache block is not in an usable state (Count)
system.cpu.icache.prefetcher.accuracy             nan                       # accuracy of the prefetcher (Count)
system.cpu.icache.prefetcher.coverage               0                       # coverage brought by this prefetcher (Count)
system.cpu.icache.prefetcher.pfHitInCache            0                       # number of prefetches hitting in cache (Count)
system.cpu.icache.prefetcher.pfHitInMSHR            0                       # number of prefetches hitting in a MSHR (Count)
system.cpu.icache.prefetcher.pfHitInWB              0                       # number of prefetches hit in the Write Buffer (Count)
system.cpu.icache.prefetcher.pfLate                 0                       # number of late prefetches (hitting in cache, MSHR or WB) (Count)
system.cpu.icache.prefetcher.pfIdentified            0                       # number of prefetch candidates identified (Count)
system.cpu.icache.prefetcher.pfBufferHit            0                       # number of redundant prefetches already in prefetch queue (Count)
system.cpu.icache.prefetcher.pfInCache              0                       # number of redundant prefetches already in cache/mshr dropped (Count)
system.cpu.icache.prefetcher.pfRemovedDemand            0                       # number of prefetches dropped due to a demand for the same address (Count)
system.cpu.icache.prefetcher.pfRemovedFull            0                       # number of prefetches dropped due to prefetch queue size (Count)
system.cpu.icache.prefetcher.pfSpanPage             0                       # number of prefetches that crossed the page (Count)
system.cpu.icache.prefetcher.pfUsefulSpanPage            0                       # number of prefetches that is useful and crossed the page (Count)
system.cpu.icache.prefetcher.power_state.pwrStateResidencyTicks::UNDEFINED  67336461000                       # Cumulative time (in ticks) in various power states (Tick)
system.cpu.icache.tags.tagsInUse           996.372138                       # Average ticks per tags in use ((Tick/Count))
system.cpu.icache.tags.totalRefs              6562729                       # Total number of references to valid blocks. (Count)
system.cpu.icache.tags.sampledRefs               1648                       # Sample count of references to valid blocks. (Count)
system.cpu.icache.tags.avgRefs            3982.238471                       # Average number of references to valid blocks. ((Count/Count))
system.cpu.icache.tags.warmupTick               88000                       # The tick when the warmup percentage was hit. (Tick)
system.cpu.icache.tags.occupancies::cpu.inst   996.372138                       # Average occupied blocks per tick, per requestor ((Count/Tick))
system.cpu.icache.tags.avgOccs::cpu.inst     0.973020                       # Average percentage of cache occupancy ((Ratio/Tick))
system.cpu.icache.tags.avgOccs::total        0.973020                       # Average percentage of cache occupancy ((Ratio/Tick))
[...]
system.mem_ctrl.dram.numWrites::writebacks           70                       # Number of write requests responded to by this memory (Count)
system.mem_ctrl.dram.numWrites::total              70                       # Number of write requests responded to by this memory (Count)
system.mem_ctrl.dram.bwRead::cpu.inst         1512167                       # Total read bandwidth from this memory ((Byte/Second))
system.mem_ctrl.dram.bwRead::cpu.data         2661263                       # Total read bandwidth from this memory ((Byte/Second))
system.mem_ctrl.dram.bwRead::cpu.dcache.prefetcher       452415                       # Total read bandwidth from this memory ((Byte/Second))
system.mem_ctrl.dram.bwRead::l2cache.prefetcher       513243                       # Total read bandwidth from this memory ((Byte/Second))
system.mem_ctrl.dram.bwRead::total            5139088                       # Total read bandwidth from this memory ((Byte/Second))
system.mem_ctrl.dram.bwInstRead::cpu.inst      1512167                       # Instruction read bandwidth from this memory ((Byte/Second))
system.mem_ctrl.dram.bwInstRead::total        1512167                       # Instruction read bandwidth from this memory ((Byte/Second))
system.mem_ctrl.dram.bwWrite::writebacks        66532                       # Write bandwidth from this memory ((Byte/Second))
system.mem_ctrl.dram.bwWrite::total             66532                       # Write bandwidth from this memory ((Byte/Second))
system.mem_ctrl.dram.bwTotal::writebacks        66532                       # Total bandwidth to/from this memory ((Byte/Second))
system.mem_ctrl.dram.bwTotal::cpu.inst        1512167                       # Total bandwidth to/from this memory ((Byte/Second))
system.mem_ctrl.dram.bwTotal::cpu.data        2661263                       # Total bandwidth to/from this memory ((Byte/Second))
system.mem_ctrl.dram.bwTotal::cpu.dcache.prefetcher       452415                       # Total bandwidth to/from this memory ((Byte/Second))
system.mem_ctrl.dram.bwTotal::l2cache.prefetcher       513243                       # Total bandwidth to/from this memory ((Byte/Second))
system.mem_ctrl.dram.bwTotal::total           5205620                       # Total bandwidth to/from this memory ((Byte/Second))
system.mem_ctrl.dram.readBursts                  5404                       # Number of DRAM read bursts (Count)
system.mem_ctrl.dram.writeBursts                   52                       # Number of DRAM write bursts (Count)
system.mem_ctrl.dram.perBankRdBursts::0           228                       # Per bank write bursts (Count)
system.mem_ctrl.dram.perBankRdBursts::1           235                       # Per bank write bursts (Count)
system.mem_ctrl.dram.perBankRdBursts::2           326                       # Per bank write bursts (Count)
system.mem_ctrl.dram.perBankRdBursts::3           199                       # Per bank write bursts (Count)
system.mem_ctrl.dram.perBankRdBursts::4           376                       # Per bank write bursts (Count)
system.mem_ctrl.dram.perBankRdBursts::5           306                       # Per bank write bursts (Count)
system.mem_ctrl.dram.perBankRdBursts::6           225                       # Per bank write bursts (Count)
system.mem_ctrl.dram.perBankRdBursts::7           286                       # Per bank write bursts (Count)
system.mem_ctrl.dram.perBankRdBursts::8           480                       # Per bank write bursts (Count)
system.mem_ctrl.dram.perBankRdBursts::9           414                       # Per bank write bursts (Count)
system.mem_ctrl.dram.perBankRdBursts::10          458                       # Per bank write bursts (Count)
system.mem_ctrl.dram.perBankRdBursts::11          498                       # Per bank write bursts (Count)
system.mem_ctrl.dram.perBankRdBursts::12          384                       # Per bank write bursts (Count)
system.mem_ctrl.dram.perBankRdBursts::13          335                       # Per bank write bursts (Count)
system.mem_ctrl.dram.perBankRdBursts::14          314                       # Per bank write bursts (Count)
system.mem_ctrl.dram.perBankRdBursts::15          340                       # Per bank write bursts (Count)
system.mem_ctrl.dram.perBankWrBursts::0             0                       # Per bank write bursts (Count)
system.mem_ctrl.dram.perBankWrBursts::1             0                       # Per bank write bursts (Count)
system.mem_ctrl.dram.perBankWrBursts::2             1                       # Per bank write bursts (Count)
system.mem_ctrl.dram.perBankWrBursts::3             3                       # Per bank write bursts (Count)
system.mem_ctrl.dram.perBankWrBursts::4            10                       # Per bank write bursts (Count)
system.mem_ctrl.dram.perBankWrBursts::5             0                       # Per bank write bursts (Count)
system.mem_ctrl.dram.perBankWrBursts::6            23                       # Per bank write bursts (Count)
system.mem_ctrl.dram.perBankWrBursts::7             4                       # Per bank write bursts (Count)
system.mem_ctrl.dram.perBankWrBursts::8            10                       # Per bank write bursts (Count)
system.mem_ctrl.dram.perBankWrBursts::9             1                       # Per bank write bursts (Count)
system.mem_ctrl.dram.perBankWrBursts::10            0                       # Per bank write bursts (Count)
system.mem_ctrl.dram.perBankWrBursts::11            0                       # Per bank write bursts (Count)
system.mem_ctrl.dram.perBankWrBursts::12            0                       # Per bank write bursts (Count)
system.mem_ctrl.dram.perBankWrBursts::13            0                       # Per bank write bursts (Count)
system.mem_ctrl.dram.perBankWrBursts::14            0                       # Per bank write bursts (Count)
system.mem_ctrl.dram.perBankWrBursts::15            0                       # Per bank write bursts (Count)
system.mem_ctrl.dram.totQLat                 55273541                       # Total ticks spent queuing (Tick)
system.mem_ctrl.dram.totBusLat               27020000                       # Total ticks spent in databus transfers (Tick)
system.mem_ctrl.dram.totMemAccLat           156598541                       # Total ticks spent from burst creation until serviced by the DRAM (Tick)
system.mem_ctrl.dram.avgQLat                 10228.26                       # Average queueing delay per DRAM burst ((Tick/Count))
system.mem_ctrl.dram.avgBusLat                5000.00                       # Average bus latency per DRAM burst ((Tick/Count))
system.mem_ctrl.dram.avgMemAccLat            28978.26                       # Average memory access latency per DRAM burst ((Tick/Count))
system.mem_ctrl.dram.readRowHits                 3964                       # Number of row buffer hits during reads (Count)
system.mem_ctrl.dram.writeRowHits                  42                       # Number of row buffer hits during writes (Count)
system.mem_ctrl.dram.readRowHitRate             73.35                       # Row buffer hit rate for reads (Ratio)
system.mem_ctrl.dram.writeRowHitRate            80.77                       # Row buffer hit rate for writes (Ratio)
system.mem_ctrl.dram.bytesPerActivate::samples         1450                       # Bytes accessed per row activation (Byte)
system.mem_ctrl.dram.bytesPerActivate::mean   240.816552                       # Bytes accessed per row activation (Byte)
system.mem_ctrl.dram.bytesPerActivate::gmean   154.805263                       # Bytes accessed per row activation (Byte)
system.mem_ctrl.dram.bytesPerActivate::stdev   272.113393                       # Bytes accessed per row activation (Byte)
system.mem_ctrl.dram.bytesPerActivate::0-127          509     35.10%     35.10% # Bytes accessed per row activation (Byte)
system.mem_ctrl.dram.bytesPerActivate::128-255          544     37.52%     72.62% # Bytes accessed per row activation (Byte)
system.mem_ctrl.dram.bytesPerActivate::256-383          123      8.48%     81.10% # Bytes accessed per row activation (Byte)
system.mem_ctrl.dram.bytesPerActivate::384-511           89      6.14%     87.24% # Bytes accessed per row activation (Byte)
system.mem_ctrl.dram.bytesPerActivate::512-639           28      1.93%     89.17% # Bytes accessed per row activation (Byte)
system.mem_ctrl.dram.bytesPerActivate::640-767           24      1.66%     90.83% # Bytes accessed per row activation (Byte)
system.mem_ctrl.dram.bytesPerActivate::768-895           13      0.90%     91.72% # Bytes accessed per row activation (Byte)
system.mem_ctrl.dram.bytesPerActivate::896-1023           11      0.76%     92.48% # Bytes accessed per row activation (Byte)
system.mem_ctrl.dram.bytesPerActivate::1024-1151          109      7.52%    100.00% # Bytes accessed per row activation (Byte)
system.mem_ctrl.dram.bytesPerActivate::total         1450                       # Bytes accessed per row activation (Byte)
system.mem_ctrl.dram.bytesRead                 345856                       # Total bytes read (Byte)
system.mem_ctrl.dram.bytesWritten                3328                       # Total bytes written (Byte)
system.mem_ctrl.dram.avgRdBW                 5.136237                       # Average DRAM read bandwidth in MiBytes/s ((Byte/Second))
system.mem_ctrl.dram.avgWrBW                 0.049423                       # Average DRAM write bandwidth in MiBytes/s ((Byte/Second))
system.mem_ctrl.dram.peakBW                  12800.00                       # Theoretical peak bandwidth in MiByte/s ((Byte/Second))
system.mem_ctrl.dram.busUtil                     0.04                       # Data bus utilization in percentage (Ratio)
system.mem_ctrl.dram.busUtilRead                 0.04                       # Data bus utilization in percentage for reads (Ratio)
system.mem_ctrl.dram.busUtilWrite                0.00                       # Data bus utilization in percentage for writes (Ratio)
system.mem_ctrl.dram.pageHitRate                73.42                       # Row buffer hit rate, read and write combined (Ratio)
system.mem_ctrl.dram.power_state.pwrStateResidencyTicks::UNDEFINED  67336461000                       # Cumulative time (in ticks) in various power states (Tick)
system.mem_ctrl.dram.rank0.actEnergy          5197920                       # Energy for activate commands per rank (pJ) (Joule)
system.mem_ctrl.dram.rank0.preEnergy          2762760                       # Energy for precharge commands per rank (pJ) (Joule)
system.mem_ctrl.dram.rank0.readEnergy        15572340                       # Energy for read commands per rank (pJ) (Joule)
system.mem_ctrl.dram.rank0.writeEnergy         214020                       # Energy for write commands per rank (pJ) (Joule)
system.mem_ctrl.dram.rank0.refreshEnergy 5315406720.000001                       # Energy for refresh commands per rank (pJ) (Joule)
system.mem_ctrl.dram.rank0.actBackEnergy   1692113400                       # Energy for active background per rank (pJ) (Joule)
system.mem_ctrl.dram.rank0.preBackEnergy  24432263520                       # Energy for precharge background per rank (pJ) (Joule)
system.mem_ctrl.dram.rank0.actPowerDownEnergy            0                       # Energy for active power-down per rank (pJ) (Joule)
system.mem_ctrl.dram.rank0.prePowerDownEnergy            0                       # Energy for precharge power-down per rank (pJ) (Joule)
system.mem_ctrl.dram.rank0.selfRefreshEnergy            0                       # Energy for self refresh per rank (pJ) (Joule)
system.mem_ctrl.dram.rank0.totalEnergy    31463530680                       # Total energy per rank (pJ) (Joule)
system.mem_ctrl.dram.rank0.averagePower    467.258454                       # Core power per rank (mW) (Watt)
system.mem_ctrl.dram.rank0.totalIdleTime            0                       # Total Idle time Per DRAM Rank (Tick)
system.mem_ctrl.dram.rank0.pwrStateTime::IDLE  63502890996                       # Time in different power states (Tick)
system.mem_ctrl.dram.rank0.pwrStateTime::REF   2248480000                       # Time in different power states (Tick)
system.mem_ctrl.dram.rank0.pwrStateTime::SREF            0                       # Time in different power states (Tick)
system.mem_ctrl.dram.rank0.pwrStateTime::PRE_PDN            0                       # Time in different power states (Tick)
system.mem_ctrl.dram.rank0.pwrStateTime::ACT   1585090004                       # Time in different power states (Tick)
system.mem_ctrl.dram.rank0.pwrStateTime::ACT_PDN            0                       # Time in different power states (Tick)
system.mem_ctrl.dram.rank1.actEnergy          5155080                       # Energy for activate commands per rank (pJ) (Joule)
system.mem_ctrl.dram.rank1.preEnergy          2739990                       # Energy for precharge commands per rank (pJ) (Joule)
system.mem_ctrl.dram.rank1.readEnergy        23012220                       # Energy for read commands per rank (pJ) (Joule)
system.mem_ctrl.dram.rank1.writeEnergy          57420                       # Energy for write commands per rank (pJ) (Joule)
system.mem_ctrl.dram.rank1.refreshEnergy 5315406720.000001                       # Energy for refresh commands per rank (pJ) (Joule)
system.mem_ctrl.dram.rank1.actBackEnergy   1683669420                       # Energy for active background per rank (pJ) (Joule)
system.mem_ctrl.dram.rank1.preBackEnergy  24439374240                       # Energy for precharge background per rank (pJ) (Joule)
system.mem_ctrl.dram.rank1.actPowerDownEnergy            0                       # Energy for active power-down per rank (pJ) (Joule)
system.mem_ctrl.dram.rank1.prePowerDownEnergy            0                       # Energy for precharge power-down per rank (pJ) (Joule)
system.mem_ctrl.dram.rank1.selfRefreshEnergy            0                       # Energy for self refresh per rank (pJ) (Joule)
system.mem_ctrl.dram.rank1.totalEnergy    31469415090                       # Total energy per rank (pJ) (Joule)
system.mem_ctrl.dram.rank1.averagePower    467.345842                       # Core power per rank (mW) (Watt)
system.mem_ctrl.dram.rank1.totalIdleTime            0                       # Total Idle time Per DRAM Rank (Tick)
system.mem_ctrl.dram.rank1.pwrStateTime::IDLE  63520931502                       # Time in different power states (Tick)
system.mem_ctrl.dram.rank1.pwrStateTime::REF   2248480000                       # Time in different power states (Tick)
system.mem_ctrl.dram.rank1.pwrStateTime::SREF            0                       # Time in different power states (Tick)
system.mem_ctrl.dram.rank1.pwrStateTime::PRE_PDN            0                       # Time in different power states (Tick)
system.mem_ctrl.dram.rank1.pwrStateTime::ACT   1567049498                       # Time in different power states (Tick)
system.mem_ctrl.dram.rank1.pwrStateTime::ACT_PDN            0                       # Time in different power states (Tick)
system.mem_ctrl.power_state.pwrStateResidencyTicks::UNDEFINED  67336461000                       # Cumulative time (in ticks) in various power states (Tick)
system.membus.transDist::ReadResp                3577                       # Transaction distribution (Count)
system.membus.transDist::WritebackDirty            70                       # Transaction distribution (Count)
system.membus.transDist::CleanEvict               538                       # Transaction distribution (Count)
system.membus.transDist::ReadExReq               1830                       # Transaction distribution (Count)
system.membus.transDist::ReadExResp              1830                       # Transaction distribution (Count)
system.membus.transDist::ReadSharedReq           3577                       # Transaction distribution (Count)
system.membus.pktCount_system.l2cache.mem_side_port::system.mem_ctrl.port        11422                       # Packet count per connected requestor and responder (Count)
system.membus.pktCount_system.l2cache.mem_side_port::total        11422                       # Packet count per connected requestor and responder (Count)
system.membus.pktCount::total                   11422                       # Packet count per connected requestor and responder (Count)
system.membus.pktSize_system.l2cache.mem_side_port::system.mem_ctrl.port       350528                       # Cumulative packet size per connected requestor and responder (Byte)
system.membus.pktSize_system.l2cache.mem_side_port::total       350528                       # Cumulative packet size per connected requestor and responder (Byte)
system.membus.pktSize::total                   350528                       # Cumulative packet size per connected requestor and responder (Byte)
system.membus.snoops                                0                       # Total snoops (Count)
system.membus.snoopTraffic                          0                       # Total snoop traffic (Byte)
system.membus.snoopFanout::samples               5407                       # Request fanout histogram (Count)
system.membus.snoopFanout::mean                     0                       # Request fanout histogram (Count)
system.membus.snoopFanout::stdev                    0                       # Request fanout histogram (Count)
system.membus.snoopFanout::underflows               0      0.00%      0.00% # Request fanout histogram (Count)
system.membus.snoopFanout::0                     5407    100.00%    100.00% # Request fanout histogram (Count)
system.membus.snoopFanout::1                        0      0.00%    100.00% # Request fanout histogram (Count)
system.membus.snoopFanout::overflows                0      0.00%    100.00% # Request fanout histogram (Count)
system.membus.snoopFanout::min_value                0                       # Request fanout histogram (Count)
system.membus.snoopFanout::max_value                0                       # Request fanout histogram (Count)
system.membus.snoopFanout::total                 5407                       # Request fanout histogram (Count)
system.membus.power_state.pwrStateResidencyTicks::UNDEFINED  67336461000                       # Cumulative time (in ticks) in various power states (Tick)
system.membus.reqLayer2.occupancy             6324309                       # Layer occupancy (ticks) (Tick)
system.membus.reqLayer2.utilization               0.0                       # Layer utilization (Ratio)
system.membus.respLayer0.occupancy           28513008                       # Layer occupancy (ticks) (Tick)
system.membus.respLayer0.utilization              0.0                       # Layer utilization (Ratio)
system.membus.snoop_filter.totRequests           6015                       # Total number of requests made to the snoop filter. (Count)
system.membus.snoop_filter.hitSingleRequests          608                       # Number of requests hitting in the snoop filter with a single holder of the requested data. (Count)
system.membus.snoop_filter.hitMultiRequests            0                       # Number of requests hitting in the snoop filter with multiple (>1) holders of the requested data. (Count)
system.membus.snoop_filter.totSnoops                0                       # Total number of snoops made to the snoop filter. (Count)
system.membus.snoop_filter.hitSingleSnoops            0                       # Number of snoops hitting in the snoop filter with a single holder of the requested data. (Count)
system.membus.snoop_filter.hitMultiSnoops            0                       # Number of snoops hitting in the snoop filter with multiple (>1) holders of the requested data. (Count)
system.workload.inst.arm                            0                       # number of arm instructions executed (Count)
system.workload.inst.quiesce                        0                       # number of quiesce instructions executed (Count)

---------- End Simulation Statistics   ----------
