
---------- Begin Simulation Statistics ----------
simSeconds                                   0.007832                       # Number of seconds simulated (Second)
simTicks                                   7831963000                       # Number of ticks simulated (Tick)
finalTick                                  7831963000                       # Number of ticks from beginning of simulation (restored from checkpoints and never reset) (Tick)
simFreq                                  1000000000000                       # The number of ticks per simulated second ((Tick/Second))
hostSeconds                                     31.33                       # Real time elapsed on the host (Second)
hostTickRate                                249979226                       # The number of ticks simulated per host second (ticks/s) ((Tick/Second))
hostMemory                                    8538532                       # Number of bytes of host memory used (Byte)
simInsts                                      5000000                       # Number of instructions simulated (Count)
simOps                                        6976589                       # Number of ops (including micro ops) simulated (Count)
hostInstRate                                   159589                       # Simulator instruction rate (inst/s) ((Count/Second))
hostOpRate                                     222677                       # Simulator op (including micro ops) rate (op/s) ((Count/Second))
system.clk_domain.clock                          1000                       # Clock period in ticks (Tick)
system.clk_domain.voltage_domain.voltage            1                       # Voltage in Volts (Volt)
system.cpu.numCycles                          7831987                       # Number of cpu cycles simulated (Cycle)
system.cpu.numWorkItemsStarted                      0                       # Number of work items this cpu started (Count)
system.cpu.numWorkItemsCompleted                    0                       # Number of work items this cpu completed (Count)
system.cpu.instsAdded                         8255791                       # Number of instructions added to the IQ (excludes non-spec) (Count)
system.cpu.nonSpecInstsAdded                      650                       # Number of non-speculative instructions added to the IQ (Count)
system.cpu.instsIssued                        7667386                       # Number of instructions issued (Count)
system.cpu.squashedInstsIssued                  23510                       # Number of squashed instructions issued (Count)
system.cpu.squashedInstsExamined              1279792                       # Number of squashed instructions iterated over during squash; mainly for profiling (Count)
system.cpu.squashedOperandsExamined           2764475                       # Number of squashed operands that are examined and possibly removed from graph (Count)
system.cpu.squashedNonSpecRemoved                 380                       # Number of squashed non-spec instructions that were removed (Count)
system.cpu.numIssuedDist::samples             7796311                       # Number of insts issued each cycle (Count)
system.cpu.numIssuedDist::mean               0.983463                       # Number of insts issued each cycle (Count)
system.cpu.numIssuedDist::stdev              0.980529                       # Number of insts issued each cycle (Count)
system.cpu.numIssuedDist::underflows                0      0.00%      0.00% # Number of insts issued each cycle (Count)
system.cpu.numIssuedDist::0                   3049654     39.12%     39.12% # Number of insts issued each cycle (Count)
system.cpu.numIssuedDist::1                   2507309     32.16%     71.28% # Number of insts issued each cycle (Count)
system.cpu.numIssuedDist::2                   1633794     20.96%     92.23% # Number of insts issued each cycle (Count)
system.cpu.numIssuedDist::3                    536035      6.88%     99.11% # Number of insts issued each cycle (Count)
system.cpu.numIssuedDist::4                     63398      0.81%     99.92% # Number of insts issued each cycle (Count)
system.cpu.numIssuedDist::5                      5934      0.08%    100.00% # Number of insts issued each cycle (Count)
system.cpu.numIssuedDist::6                       187      0.00%    100.00% # Number of insts issued each cycle (Count)
system.cpu.numIssuedDist::7                         0      0.00%    100.00% # Number of insts issued each cycle (Count)
system.cpu.numIssuedDist::8                         0      0.00%    100.00% # Number of insts issued each cycle (Count)
system.cpu.numIssuedDist::overflows                 0      0.00%    100.00% # Number of insts issued each cycle (Count)
system.cpu.numIssuedDist::min_value                 0                       # Number of insts issued each cycle (Count)
system.cpu.numIssuedDist::max_value                 6                       # Number of insts issued each cycle (Count)
system.cpu.numIssuedDist::total               7796311                       # Number of insts issued each cycle (Count)
system.cpu.statFuBusy::No_OpClass                   0      0.00%      0.00% # attempts to use FU when none available (Count)
system.cpu.statFuBusy::IntAlu                  473229     29.31%     29.31% # attempts to use FU when none available (Count)
system.cpu.statFuBusy::IntMult                      0      0.00%     29.31% # attempts to use FU when none available (Count)
system.cpu.statFuBusy::IntDiv                       0      0.00%     29.31% # attempts to use FU when none available (Count)
system.cpu.statFuBusy::FloatAdd                 11863      0.73%     30.05% # attempts to use FU when none available (Count)
system.cpu.statFuBusy::FloatCmp                     0      0.00%     30.05% # attempts to use FU when none available (Count)
system.cpu.statFuBusy::FloatCvt                     0      0.00%     30.05% # attempts to use FU when none available (Count)
system.cpu.statFuBusy::FloatMult                    0      0.00%     30.05% # attempts to use FU when none available (Count)
system.cpu.statFuBusy::FloatMultAcc                 0      0.00%     30.05% # attempts to use FU when none available (Count)
system.cpu.statFuBusy::FloatDiv                     0      0.00%     30.05% # attempts to use FU when none available (Count)
system.cpu.statFuBusy::FloatMisc                    0      0.00%     30.05% # attempts to use FU when none available (Count)
system.cpu.statFuBusy::FloatSqrt                    0      0.00%     30.05% # attempts to use FU when none available (Count)
system.cpu.statFuBusy::SimdAdd                      0      0.00%     30.05% # attempts to use FU when none available (Count)
system.cpu.statFuBusy::SimdAddAcc                   0      0.00%     30.05% # attempts to use FU when none available (Count)
system.cpu.statFuBusy::SimdAlu                   1438      0.09%     30.14% # attempts to use FU when none available (Count)
system.cpu.statFuBusy::SimdCmp                      2      0.00%     30.14% # attempts to use FU when none available (Count)
system.cpu.statFuBusy::SimdCvt                   1141      0.07%     30.21% # attempts to use FU when none available (Count)
system.cpu.statFuBusy::SimdMisc                    62      0.00%     30.21% # attempts to use FU when none available (Count)
system.cpu.statFuBusy::SimdMult                     0      0.00%     30.21% # attempts to use FU when none available (Count)
system.cpu.statFuBusy::SimdMultAcc                  0      0.00%     30.21% # attempts to use FU when none available (Count)
system.cpu.statFuBusy::SimdShift                    7      0.00%     30.21% # attempts to use FU when none available (Count)
system.cpu.statFuBusy::SimdShiftAcc                 0      0.00%     30.21% # attempts to use FU when none available (Count)
system.cpu.statFuBusy::SimdDiv                      0      0.00%     30.21% # attempts to use FU when none available (Count)
system.cpu.statFuBusy::SimdSqrt                     0      0.00%     30.21% # attempts to use FU when none available (Count)
system.cpu.statFuBusy::SimdFloatAdd               596      0.04%     30.25% # attempts to use FU when none available (Count)
system.cpu.statFuBusy::SimdFloatAlu                 0      0.00%     30.25% # attempts to use FU when none available (Count)
system.cpu.statFuBusy::SimdFloatCmp                 0      0.00%     30.25% # attempts to use FU when none available (Count)
system.cpu.statFuBusy::SimdFloatCvt               106      0.01%     30.26% # attempts to use FU when none available (Count)
system.cpu.statFuBusy::SimdFloatDiv                 3      0.00%     30.26% # attempts to use FU when none available (Count)
system.cpu.statFuBusy::SimdFloatMisc                0      0.00%     30.26% # attempts to use FU when none available (Count)
system.cpu.statFuBusy::SimdFloatMult              107      0.01%     30.26% # attempts to use FU when none available (Count)
system.cpu.statFuBusy::SimdFloatMultAcc             0      0.00%     30.26% # attempts to use FU when none available (Count)
system.cpu.statFuBusy::SimdFloatSqrt                0      0.00%     30.26% # attempts to use FU when none available (Count)
system.cpu.statFuBusy::SimdReduceAdd                0      0.00%     30.26% # attempts to use FU when none available (Count)
system.cpu.statFuBusy::SimdReduceAlu                0      0.00%     30.26% # attempts to use FU when none available (Count)
system.cpu.statFuBusy::SimdReduceCmp                0      0.00%     30.26% # attempts to use FU when none available (Count)
system.cpu.statFuBusy::SimdFloatReduceAdd            0      0.00%     30.26% # attempts to use FU when none available (Count)
system.cpu.statFuBusy::SimdFloatReduceCmp            0      0.00%     30.26% # attempts to use FU when none available (Count)
system.cpu.statFuBusy::SimdAes                      0      0.00%     30.26% # attempts to use FU when none available (Count)
system.cpu.statFuBusy::SimdAesMix                   0      0.00%     30.26% # attempts to use FU when none available (Count)
system.cpu.statFuBusy::SimdSha1Hash                 0      0.00%     30.26% # attempts to use FU when none available (Count)
system.cpu.statFuBusy::SimdSha1Hash2                0      0.00%     30.26% # attempts to use FU when none available (Count)
system.cpu.statFuBusy::SimdSha256Hash               0      0.00%     30.26% # attempts to use FU when none available (Count)
system.cpu.statFuBusy::SimdSha256Hash2              0      0.00%     30.26% # attempts to use FU when none available (Count)
system.cpu.statFuBusy::SimdShaSigma2                0      0.00%     30.26% # attempts to use FU when none available (Count)
system.cpu.statFuBusy::SimdShaSigma3                0      0.00%     30.26% # attempts to use FU when none available (Count)
system.cpu.statFuBusy::SimdPredAlu                  0      0.00%     30.26% # attempts to use FU when none available (Count)
system.cpu.statFuBusy::MemRead                1014925     62.87%     93.13% # attempts to use FU when none available (Count)
system.cpu.statFuBusy::MemWrite                 23331      1.45%     94.57% # attempts to use FU when none available (Count)
system.cpu.statFuBusy::FloatMemRead             86985      5.39%     99.96% # attempts to use FU when none available (Count)
system.cpu.statFuBusy::FloatMemWrite              597      0.04%    100.00% # attempts to use FU when none available (Count)
system.cpu.statFuBusy::IprAccess                    0      0.00%    100.00% # attempts to use FU when none available (Count)
system.cpu.statFuBusy::InstPrefetch                 0      0.00%    100.00% # attempts to use FU when none available (Count)
system.cpu.statIssuedInstType_0::No_OpClass         4032      0.05%      0.05% # Number of instructions issued per FU type, per thread (Count)
system.cpu.statIssuedInstType_0::IntAlu       4424130     57.70%     57.75% # Number of instructions issued per FU type, per thread (Count)
system.cpu.statIssuedInstType_0::IntMult        11343      0.15%     57.90% # Number of instructions issued per FU type, per thread (Count)
system.cpu.statIssuedInstType_0::IntDiv         67835      0.88%     58.79% # Number of instructions issued per FU type, per thread (Count)
system.cpu.statIssuedInstType_0::FloatAdd       172127      2.24%     61.03% # Number of instructions issued per FU type, per thread (Count)
system.cpu.statIssuedInstType_0::FloatCmp            0      0.00%     61.03% # Number of instructions issued per FU type, per thread (Count)
system.cpu.statIssuedInstType_0::FloatCvt            0      0.00%     61.03% # Number of instructions issued per FU type, per thread (Count)
system.cpu.statIssuedInstType_0::FloatMult            0      0.00%     61.03% # Number of instructions issued per FU type, per thread (Count)
system.cpu.statIssuedInstType_0::FloatMultAcc            0      0.00%     61.03% # Number of instructions issued per FU type, per thread (Count)
system.cpu.statIssuedInstType_0::FloatDiv            0      0.00%     61.03% # Number of instructions issued per FU type, per thread (Count)
system.cpu.statIssuedInstType_0::FloatMisc            0      0.00%     61.03% # Number of instructions issued per FU type, per thread (Count)
system.cpu.statIssuedInstType_0::FloatSqrt            0      0.00%     61.03% # Number of instructions issued per FU type, per thread (Count)
system.cpu.statIssuedInstType_0::SimdAdd          512      0.01%     61.04% # Number of instructions issued per FU type, per thread (Count)
system.cpu.statIssuedInstType_0::SimdAddAcc            0      0.00%     61.04% # Number of instructions issued per FU type, per thread (Count)
system.cpu.statIssuedInstType_0::SimdAlu        23591      0.31%     61.35% # Number of instructions issued per FU type, per thread (Count)
system.cpu.statIssuedInstType_0::SimdCmp          210      0.00%     61.35% # Number of instructions issued per FU type, per thread (Count)
system.cpu.statIssuedInstType_0::SimdCvt        12965      0.17%     61.52% # Number of instructions issued per FU type, per thread (Count)
system.cpu.statIssuedInstType_0::SimdMisc        33409      0.44%     61.95% # Number of instructions issued per FU type, per thread (Count)
system.cpu.statIssuedInstType_0::SimdMult            0      0.00%     61.95% # Number of instructions issued per FU type, per thread (Count)
system.cpu.statIssuedInstType_0::SimdMultAcc            0      0.00%     61.95% # Number of instructions issued per FU type, per thread (Count)
system.cpu.statIssuedInstType_0::SimdShift          180      0.00%     61.96% # Number of instructions issued per FU type, per thread (Count)
system.cpu.statIssuedInstType_0::SimdShiftAcc            0      0.00%     61.96% # Number of instructions issued per FU type, per thread (Count)
system.cpu.statIssuedInstType_0::SimdDiv            0      0.00%     61.96% # Number of instructions issued per FU type, per thread (Count)
system.cpu.statIssuedInstType_0::SimdSqrt            0      0.00%     61.96% # Number of instructions issued per FU type, per thread (Count)
system.cpu.statIssuedInstType_0::SimdFloatAdd        50364      0.66%     62.61% # Number of instructions issued per FU type, per thread (Count)
system.cpu.statIssuedInstType_0::SimdFloatAlu            0      0.00%     62.61% # Number of instructions issued per FU type, per thread (Count)
system.cpu.statIssuedInstType_0::SimdFloatCmp            0      0.00%     62.61% # Number of instructions issued per FU type, per thread (Count)
system.cpu.statIssuedInstType_0::SimdFloatCvt        55830      0.73%     63.34% # Number of instructions issued per FU type, per thread (Count)
system.cpu.statIssuedInstType_0::SimdFloatDiv         6360      0.08%     63.42% # Number of instructions issued per FU type, per thread (Count)
system.cpu.statIssuedInstType_0::SimdFloatMisc            0      0.00%     63.42% # Number of instructions issued per FU type, per thread (Count)
system.cpu.statIssuedInstType_0::SimdFloatMult        23377      0.30%     63.73% # Number of instructions issued per FU type, per thread (Count)
system.cpu.statIssuedInstType_0::SimdFloatMultAcc            0      0.00%     63.73% # Number of instructions issued per FU type, per thread (Count)
system.cpu.statIssuedInstType_0::SimdFloatSqrt            0      0.00%     63.73% # Number of instructions issued per FU type, per thread (Count)
system.cpu.statIssuedInstType_0::SimdReduceAdd            0      0.00%     63.73% # Number of instructions issued per FU type, per thread (Count)
system.cpu.statIssuedInstType_0::SimdReduceAlu            0      0.00%     63.73% # Number of instructions issued per FU type, per thread (Count)
system.cpu.statIssuedInstType_0::SimdReduceCmp            0      0.00%     63.73% # Number of instructions issued per FU type, per thread (Count)
system.cpu.statIssuedInstType_0::SimdFloatReduceAdd            0      0.00%     63.73% # Number of instructions issued per FU type, per thread (Count)
system.cpu.statIssuedInstType_0::SimdFloatReduceCmp            0      0.00%     63.73% # Number of instructions issued per FU type, per thread (Count)
system.cpu.statIssuedInstType_0::SimdAes            0      0.00%     63.73% # Number of instructions issued per FU type, per thread (Count)
system.cpu.statIssuedInstType_0::SimdAesMix            0      0.00%     63.73% # Number of instructions issued per FU type, per thread (Count)
system.cpu.statIssuedInstType_0::SimdSha1Hash            0      0.00%     63.73% # Number of instructions issued per FU type, per thread (Count)
system.cpu.statIssuedInstType_0::SimdSha1Hash2            0      0.00%     63.73% # Number of instructions issued per FU type, per thread (Count)
system.cpu.statIssuedInstType_0::SimdSha256Hash            0      0.00%     63.73% # Number of instructions issued per FU type, per thread (Count)
system.cpu.statIssuedInstType_0::SimdSha256Hash2            0      0.00%     63.73% # Number of instructions issued per FU type, per thread (Count)
system.cpu.statIssuedInstType_0::SimdShaSigma2            0      0.00%     63.73% # Number of instructions issued per FU type, per thread (Count)
system.cpu.statIssuedInstType_0::SimdShaSigma3            0      0.00%     63.73% # Number of instructions issued per FU type, per thread (Count)
system.cpu.statIssuedInstType_0::SimdPredAlu            0      0.00%     63.73% # Number of instructions issued per FU type, per thread (Count)
system.cpu.statIssuedInstType_0::MemRead      2217558     28.92%     92.65% # Number of instructions issued per FU type, per thread (Count)
system.cpu.statIssuedInstType_0::MemWrite       402823      5.25%     97.90% # Number of instructions issued per FU type, per thread (Count)
system.cpu.statIssuedInstType_0::FloatMemRead       129059      1.68%     99.59% # Number of instructions issued per FU type, per thread (Count)
system.cpu.statIssuedInstType_0::FloatMemWrite        31681      0.41%    100.00% # Number of instructions issued per FU type, per thread (Count)
system.cpu.statIssuedInstType_0::IprAccess            0      0.00%    100.00% # Number of instructions issued per FU type, per thread (Count)
system.cpu.statIssuedInstType_0::InstPrefetch            0      0.00%    100.00% # Number of instructions issued per FU type, per thread (Count)
system.cpu.statIssuedInstType_0::total        7667386                       # Number of instructions issued per FU type, per thread (Count)
system.cpu.issueRate                         0.978983                       # Inst issue rate ((Count/Cycle))
system.cpu.fuBusy                             1614392                       # FU busy when requested (Count)
system.cpu.fuBusyRate                        0.210553                       # FU busy rate (busy events/executed inst) ((Count/Count))
system.cpu.intInstQueueReads                 23472515                       # Number of integer instruction queue reads (Count)
system.cpu.intInstQueueWrites                 8800394                       # Number of integer instruction queue writes (Count)
system.cpu.intInstQueueWakeupAccesses         7012254                       # Number of integer instruction queue wakeup accesses (Count)
system.cpu.fpInstQueueReads                   1296467                       # Number of floating instruction queue reads (Count)
system.cpu.fpInstQueueWrites                   736820                       # Number of floating instruction queue writes (Count)
system.cpu.fpInstQueueWakeupAccesses           588894                       # Number of floating instruction queue wakeup accesses (Count)
system.cpu.vecInstQueueReads                        0                       # Number of vector instruction queue reads (Count)
system.cpu.vecInstQueueWrites                       0                       # Number of vector instruction queue writes (Count)
system.cpu.vecInstQueueWakeupAccesses               0                       # Number of vector instruction queue wakeup accesses (Count)
system.cpu.intAluAccesses                     8576448                       # Number of integer alu accesses (Count)
system.cpu.fpAluAccesses                       701298                       # Number of floating point alu accesses (Count)
system.cpu.vecAluAccesses                           0                       # Number of vector alu accesses (Count)
system.cpu.numInsts                           7616309                       # Number of executed instructions (Count)
system.cpu.numLoadInsts                       2321855                       # Number of load instructions executed (Count)
system.cpu.numSquashedInsts                     51074                       # Number of squashed instructions skipped in execute (Count)
system.cpu.numSwp                                   0                       # Number of swp insts executed (Count)
system.cpu.numNop                                   0                       # Number of nop insts executed (Count)
system.cpu.numRefs                            2749351                       # Number of memory reference insts executed (Count)
system.cpu.numBranches                         390691                       # Number of branches executed (Count)
system.cpu.numStoreInsts                       427496                       # Number of stores executed (Count)
system.cpu.numRate                           0.972462                       # Inst execution rate ((Count/Cycle))
system.cpu.timesIdled                             795                       # Number of times that the entire CPU went into an idle state and unscheduled itself (Count)
system.cpu.idleCycles                           35676                       # Total number of cycles that the CPU has spent unscheduled due to idling (Cycle)
system.cpu.committedInsts                     5000000                       # Number of Instructions Simulated (Count)
system.cpu.committedOps                       6976589                       # Number of Ops (including micro ops) Simulated (Count)
system.cpu.cpi                               1.566397                       # CPI: Cycles Per Instruction ((Cycle/Count))
system.cpu.totalCpi                          1.566397                       # CPI: Total CPI of All Threads ((Cycle/Count))
system.cpu.ipc                               0.638408                       # IPC: Instructions Per Cycle ((Count/Cycle))
system.cpu.totalIpc                          0.638408                       # IPC: Total IPC of All Threads ((Count/Cycle))
system.cpu.intRegfileReads                    9633993                       # Number of integer regfile reads (Count)
system.cpu.intRegfileWrites                   6081034                       # Number of integer regfile writes (Count)
system.cpu.fpRegfileReads                      626443                       # Number of floating regfile reads (Count)
system.cpu.fpRegfileWrites                     517662                       # Number of floating regfile writes (Count)
system.cpu.ccRegfileReads                     2433898                       # number of cc regfile reads (Count)
system.cpu.ccRegfileWrites                    2787537                       # number of cc regfile writes (Count)
system.cpu.miscRegfileReads                   3525177                       # number of misc regfile reads (Count)
system.cpu.MemDepUnit__0.insertedLoads        2480801                       # Number of loads inserted to the mem dependence unit. (Count)
system.cpu.MemDepUnit__0.insertedStores        488333                       # Number of stores inserted to the mem dependence unit. (Count)
system.cpu.MemDepUnit__0.conflictingLoads       805485                       # Number of conflicting loads. (Count)
system.cpu.MemDepUnit__0.conflictingStores       154429                       # Number of conflicting stores. (Count)
system.cpu.MemDepUnit__1.insertedLoads              0                       # Number of loads inserted to the mem dependence unit. (Count)
system.cpu.MemDepUnit__1.insertedStores             0                       # Number of stores inserted to the mem dependence unit. (Count)
system.cpu.MemDepUnit__1.conflictingLoads            0                       # Number of conflicting loads. (Count)
system.cpu.MemDepUnit__1.conflictingStores            0                       # Number of conflicting stores. (Count)
system.cpu.MemDepUnit__2.insertedLoads              0                       # Number of loads inserted to the mem dependence unit. (Count)
system.cpu.MemDepUnit__2.insertedStores             0                       # Number of stores inserted to the mem dependence unit. (Count)
system.cpu.MemDepUnit__2.conflictingLoads            0                       # Number of conflicting loads. (Count)
system.cpu.MemDepUnit__2.conflictingStores            0                       # Number of conflicting stores. (Count)
system.cpu.MemDepUnit__3.insertedLoads              0                       # Number of loads inserted to the mem dependence unit. (Count)
system.cpu.MemDepUnit__3.insertedStores             0                       # Number of stores inserted to the mem dependence unit. (Count)
system.cpu.MemDepUnit__3.conflictingLoads            0                       # Number of conflicting loads. (Count)
system.cpu.MemDepUnit__3.conflictingStores            0                       # Number of conflicting stores. (Count)
system.cpu.branchPred.lookups                  510642                       # Number of BP lookups (Count)
system.cpu.branchPred.condPredicted            442575                       # Number of conditional branches predicted (Count)
system.cpu.branchPred.condIncorrect             24909                       # Number of conditional branches incorrect (Count)
system.cpu.branchPred.BTBLookups               352453                       # Number of BTB lookups (Count)
system.cpu.branchPred.BTBHits                  347092                       # Number of BTB hits (Count)
system.cpu.branchPred.BTBHitRatio            0.984789                       # BTB Hit Ratio (Ratio)
system.cpu.branchPred.RASUsed                   19598                       # Number of times the RAS was used to get a target. (Count)
system.cpu.branchPred.RASIncorrect                  2                       # Number of incorrect RAS predictions. (Count)
system.cpu.branchPred.indirectLookups            4695                       # Number of indirect predictor lookups. (Count)
system.cpu.branchPred.indirectHits               3756                       # Number of indirect target hits. (Count)
system.cpu.branchPred.indirectMisses              939                       # Number of indirect misses. (Count)
system.cpu.branchPred.indirectMispredicted          240                       # Number of mispredicted indirect branches. (Count)
system.cpu.commit.commitSquashedInsts         1279348                       # The number of squashed insts skipped by commit (Count)
system.cpu.commit.commitNonSpecStalls             270                       # The number of times commit has been forced to stall to communicate backwards (Count)
system.cpu.commit.branchMispredicts             23225                       # The number of times a branch was mispredicted (Count)
system.cpu.commit.numCommittedDist::samples      7622464                       # Number of insts commited each cycle (Count)
system.cpu.commit.numCommittedDist::mean     0.915267                       # Number of insts commited each cycle (Count)
system.cpu.commit.numCommittedDist::stdev     1.977739                       # Number of insts commited each cycle (Count)
system.cpu.commit.numCommittedDist::underflows            0      0.00%      0.00% # Number of insts commited each cycle (Count)
system.cpu.commit.numCommittedDist::0         5331067     69.94%     69.94% # Number of insts commited each cycle (Count)
system.cpu.commit.numCommittedDist::1         1041328     13.66%     83.60% # Number of insts commited each cycle (Count)
system.cpu.commit.numCommittedDist::2          278822      3.66%     87.26% # Number of insts commited each cycle (Count)
system.cpu.commit.numCommittedDist::3          304969      4.00%     91.26% # Number of insts commited each cycle (Count)
system.cpu.commit.numCommittedDist::4           89987      1.18%     92.44% # Number of insts commited each cycle (Count)
system.cpu.commit.numCommittedDist::5           56826      0.75%     93.19% # Number of insts commited each cycle (Count)
system.cpu.commit.numCommittedDist::6          124555      1.63%     94.82% # Number of insts commited each cycle (Count)
system.cpu.commit.numCommittedDist::7           87978      1.15%     95.97% # Number of insts commited each cycle (Count)
system.cpu.commit.numCommittedDist::8          306932      4.03%    100.00% # Number of insts commited each cycle (Count)
system.cpu.commit.numCommittedDist::overflows            0      0.00%    100.00% # Number of insts commited each cycle (Count)
system.cpu.commit.numCommittedDist::min_value            0                       # Number of insts commited each cycle (Count)
system.cpu.commit.numCommittedDist::max_value            8                       # Number of insts commited each cycle (Count)
system.cpu.commit.numCommittedDist::total      7622464                       # Number of insts commited each cycle (Count)
system.cpu.commit.instsCommitted              5000000                       # Number of instructions committed (Count)
system.cpu.commit.opsCommitted                6976589                       # Number of ops (including micro ops) committed (Count)
system.cpu.commit.memRefs                     2514503                       # Number of memory references committed (Count)
system.cpu.commit.loads                       2106299                       # Number of loads committed (Count)
system.cpu.commit.amos                              0                       # Number of atomic instructions committed (Count)
system.cpu.commit.membars                         180                       # Number of memory barriers committed (Count)
system.cpu.commit.branches                     371241                       # Number of branches committed (Count)
system.cpu.commit.vectorInstructions                0                       # Number of committed Vector instructions. (Count)
system.cpu.commit.floating                     543166                       # Number of committed floating point instructions. (Count)
system.cpu.commit.integer                     6558854                       # Number of committed integer instructions. (Count)
system.cpu.commit.functionCalls                 14689                       # Number of function calls committed. (Count)
system.cpu.commit.committedInstType_0::No_OpClass         2898      0.04%      0.04% # Class of committed instruction (Count)
system.cpu.commit.committedInstType_0::IntAlu      4041682     57.93%     57.97% # Class of committed instruction (Count)
system.cpu.commit.committedInstType_0::IntMult        11191      0.16%     58.13% # Class of committed instruction (Count)
system.cpu.commit.committedInstType_0::IntDiv        66952      0.96%     59.09% # Class of committed instruction (Count)
system.cpu.commit.committedInstType_0::FloatAdd       142405      2.04%     61.13% # Class of committed instruction (Count)
system.cpu.commit.committedInstType_0::FloatCmp            0      0.00%     61.13% # Class of committed instruction (Count)
system.cpu.commit.committedInstType_0::FloatCvt            0      0.00%     61.13% # Class of committed instruction (Count)
system.cpu.commit.committedInstType_0::FloatMult            0      0.00%     61.13% # Class of committed instruction (Count)
system.cpu.commit.committedInstType_0::FloatMultAcc            0      0.00%     61.13% # Class of committed instruction (Count)
system.cpu.commit.committedInstType_0::FloatDiv            0      0.00%     61.13% # Class of committed instruction (Count)
system.cpu.commit.committedInstType_0::FloatMisc            0      0.00%     61.13% # Class of committed instruction (Count)
system.cpu.commit.committedInstType_0::FloatSqrt            0      0.00%     61.13% # Class of committed instruction (Count)
system.cpu.commit.committedInstType_0::SimdAdd          450      0.01%     61.14% # Class of committed instruction (Count)
system.cpu.commit.committedInstType_0::SimdAddAcc            0      0.00%     61.14% # Class of committed instruction (Count)
system.cpu.commit.committedInstType_0::SimdAlu        21858      0.31%     61.45% # Class of committed instruction (Count)
system.cpu.commit.committedInstType_0::SimdCmp          204      0.00%     61.46% # Class of committed instruction (Count)
system.cpu.commit.committedInstType_0::SimdCvt        11920      0.17%     61.63% # Class of committed instruction (Count)
system.cpu.commit.committedInstType_0::SimdMisc        31719      0.45%     62.08% # Class of committed instruction (Count)
system.cpu.commit.committedInstType_0::SimdMult            0      0.00%     62.08% # Class of committed instruction (Count)
system.cpu.commit.committedInstType_0::SimdMultAcc            0      0.00%     62.08% # Class of committed instruction (Count)
system.cpu.commit.committedInstType_0::SimdShift          110      0.00%     62.08% # Class of committed instruction (Count)
system.cpu.commit.committedInstType_0::SimdShiftAcc            0      0.00%     62.08% # Class of committed instruction (Count)
system.cpu.commit.committedInstType_0::SimdDiv            0      0.00%     62.08% # Class of committed instruction (Count)
system.cpu.commit.committedInstType_0::SimdSqrt            0      0.00%     62.08% # Class of committed instruction (Count)
system.cpu.commit.committedInstType_0::SimdFloatAdd        49341      0.71%     62.79% # Class of committed instruction (Count)
system.cpu.commit.committedInstType_0::SimdFloatAlu            0      0.00%     62.79% # Class of committed instruction (Count)
system.cpu.commit.committedInstType_0::SimdFloatCmp            0      0.00%     62.79% # Class of committed instruction (Count)
system.cpu.commit.committedInstType_0::SimdFloatCvt        52450      0.75%     63.54% # Class of committed instruction (Count)
system.cpu.commit.committedInstType_0::SimdFloatDiv         5978      0.09%     63.63% # Class of committed instruction (Count)
system.cpu.commit.committedInstType_0::SimdFloatMisc            0      0.00%     63.63% # Class of committed instruction (Count)
system.cpu.commit.committedInstType_0::SimdFloatMult        22928      0.33%     63.96% # Class of committed instruction (Count)
system.cpu.commit.committedInstType_0::SimdFloatMultAcc            0      0.00%     63.96% # Class of committed instruction (Count)
system.cpu.commit.committedInstType_0::SimdFloatSqrt            0      0.00%     63.96% # Class of committed instruction (Count)
system.cpu.commit.committedInstType_0::SimdReduceAdd            0      0.00%     63.96% # Class of committed instruction (Count)
system.cpu.commit.committedInstType_0::SimdReduceAlu            0      0.00%     63.96% # Class of committed instruction (Count)
system.cpu.commit.committedInstType_0::SimdReduceCmp            0      0.00%     63.96% # Class of committed instruction (Count)
system.cpu.commit.committedInstType_0::SimdFloatReduceAdd            0      0.00%     63.96% # Class of committed instruction (Count)
system.cpu.commit.committedInstType_0::SimdFloatReduceCmp            0      0.00%     63.96% # Class of committed instruction (Count)
system.cpu.commit.committedInstType_0::SimdAes            0      0.00%     63.96% # Class of committed instruction (Count)
system.cpu.commit.committedInstType_0::SimdAesMix            0      0.00%     63.96% # Class of committed instruction (Count)
system.cpu.commit.committedInstType_0::SimdSha1Hash            0      0.00%     63.96% # Class of committed instruction (Count)
system.cpu.commit.committedInstType_0::SimdSha1Hash2            0      0.00%     63.96% # Class of committed instruction (Count)
system.cpu.commit.committedInstType_0::SimdSha256Hash            0      0.00%     63.96% # Class of committed instruction (Count)
system.cpu.commit.committedInstType_0::SimdSha256Hash2            0      0.00%     63.96% # Class of committed instruction (Count)
system.cpu.commit.committedInstType_0::SimdShaSigma2            0      0.00%     63.96% # Class of committed instruction (Count)
system.cpu.commit.committedInstType_0::SimdShaSigma3            0      0.00%     63.96% # Class of committed instruction (Count)
system.cpu.commit.committedInstType_0::SimdPredAlu            0      0.00%     63.96% # Class of committed instruction (Count)
system.cpu.commit.committedInstType_0::MemRead      1983979     28.44%     92.40% # Class of committed instruction (Count)
system.cpu.commit.committedInstType_0::MemWrite       377123      5.41%     97.80% # Class of committed instruction (Count)
system.cpu.commit.committedInstType_0::FloatMemRead       122320      1.75%     99.55% # Class of committed instruction (Count)
system.cpu.commit.committedInstType_0::FloatMemWrite        31081      0.45%    100.00% # Class of committed instruction (Count)
system.cpu.commit.committedInstType_0::IprAccess            0      0.00%    100.00% # Class of committed instruction (Count)
system.cpu.commit.committedInstType_0::InstPrefetch            0      0.00%    100.00% # Class of committed instruction (Count)
system.cpu.commit.committedInstType_0::total      6976589                       # Class of committed instruction (Count)
system.cpu.commit.commitEligibleSamples        306932                       # number cycles where commit BW limit reached (Cycle)
system.cpu.dcache.demandHits::cpu.data        2499553                       # number of demand (read+write) hits (Count)
system.cpu.dcache.demandHits::total           2499553                       # number of demand (read+write) hits (Count)
system.cpu.dcache.overallHits::cpu.data       2499574                       # number of overall hits (Count)
system.cpu.dcache.overallHits::total          2499574                       # number of overall hits (Count)
system.cpu.dcache.demandMisses::cpu.data         9038                       # number of demand (read+write) misses (Count)
system.cpu.dcache.demandMisses::total            9038                       # number of demand (read+write) misses (Count)
system.cpu.dcache.overallMisses::cpu.data         9695                       # number of overall misses (Count)
system.cpu.dcache.overallMisses::total           9695                       # number of overall misses (Count)
system.cpu.dcache.demandMissLatency::cpu.data    386942996                       # number of demand (read+write) miss ticks (Tick)
system.cpu.dcache.demandMissLatency::total    386942996                       # number of demand (read+write) miss ticks (Tick)
system.cpu.dcache.overallMissLatency::cpu.data    386942996                       # number of overall miss ticks (Tick)
system.cpu.dcache.overallMissLatency::total    386942996                       # number of overall miss ticks (Tick)
system.cpu.dcache.demandAccesses::cpu.data      2508591                       # number of demand (read+write) accesses (Count)
system.cpu.dcache.demandAccesses::total       2508591                       # number of demand (read+write) accesses (Count)
system.cpu.dcache.overallAccesses::cpu.data      2509269                       # number of overall (read+write) accesses (Count)
system.cpu.dcache.overallAccesses::total      2509269                       # number of overall (read+write) accesses (Count)
system.cpu.dcache.demandMissRate::cpu.data     0.003603                       # miss rate for demand accesses (Ratio)
system.cpu.dcache.demandMissRate::total      0.003603                       # miss rate for demand accesses (Ratio)
system.cpu.dcache.overallMissRate::cpu.data     0.003864                       # miss rate for overall accesses (Ratio)
system.cpu.dcache.overallMissRate::total     0.003864                       # miss rate for overall accesses (Ratio)
system.cpu.dcache.demandAvgMissLatency::cpu.data 42812.900642                       # average overall miss latency in ticks ((Tick/Count))
system.cpu.dcache.demandAvgMissLatency::total 42812.900642                       # average overall miss latency in ticks ((Tick/Count))
system.cpu.dcache.overallAvgMissLatency::cpu.data 39911.603507                       # average overall miss latency ((Tick/Count))
system.cpu.dcache.overallAvgMissLatency::total 39911.603507                       # average overall miss latency ((Tick/Count))
system.cpu.dcache.blockedCycles::no_mshrs         2393                       # number of cycles access was blocked (Cycle)
system.cpu.dcache.blockedCycles::no_targets            0                       # number of cycles access was blocked (Cycle)
system.cpu.dcache.blockedCauses::no_mshrs          183                       # number of times access was blocked (Count)
system.cpu.dcache.blockedCauses::no_targets            0                       # number of times access was blocked (Count)
system.cpu.dcache.avgBlocked::no_mshrs      13.076503                       # average number of cycles each access was blocked ((Cycle/Count))
system.cpu.dcache.avgBlocked::no_targets          nan                       # average number of cycles each access was blocked ((Cycle/Count))
system.cpu.dcache.writebacks::writebacks         6287                       # number of writebacks (Count)
system.cpu.dcache.writebacks::total              6287                       # number of writebacks (Count)
system.cpu.dcache.demandMshrHits::cpu.data         3744                       # number of demand (read+write) MSHR hits (Count)
system.cpu.dcache.demandMshrHits::total          3744                       # number of demand (read+write) MSHR hits (Count)
system.cpu.dcache.overallMshrHits::cpu.data         3744                       # number of overall MSHR hits (Count)
system.cpu.dcache.overallMshrHits::total         3744                       # number of overall MSHR hits (Count)
system.cpu.dcache.demandMshrMisses::cpu.data         5294                       # number of demand (read+write) MSHR misses (Count)
system.cpu.dcache.demandMshrMisses::total         5294                       # number of demand (read+write) MSHR misses (Count)
system.cpu.dcache.overallMshrMisses::cpu.data         5951                       # number of overall MSHR misses (Count)
system.cpu.dcache.overallMshrMisses::cpu.dcache.prefetcher         2083                       # number of overall MSHR misses (Count)
system.cpu.dcache.overallMshrMisses::total         8034                       # number of overall MSHR misses (Count)
system.cpu.dcache.demandMshrMissLatency::cpu.data    234475997                       # number of demand (read+write) MSHR miss ticks (Tick)
system.cpu.dcache.demandMshrMissLatency::total    234475997                       # number of demand (read+write) MSHR miss ticks (Tick)
system.cpu.dcache.overallMshrMissLatency::cpu.data    253812997                       # number of overall MSHR miss ticks (Tick)
system.cpu.dcache.overallMshrMissLatency::cpu.dcache.prefetcher     53908226                       # number of overall MSHR miss ticks (Tick)
system.cpu.dcache.overallMshrMissLatency::total    307721223                       # number of overall MSHR miss ticks (Tick)
system.cpu.dcache.demandMshrMissRate::cpu.data     0.002110                       # mshr miss ratio for demand accesses (Ratio)
system.cpu.dcache.demandMshrMissRate::total     0.002110                       # mshr miss ratio for demand accesses (Ratio)
system.cpu.dcache.overallMshrMissRate::cpu.data     0.002372                       # mshr miss ratio for overall accesses (Ratio)
system.cpu.dcache.overallMshrMissRate::cpu.dcache.prefetcher          inf                       # mshr miss ratio for overall accesses (Ratio)
system.cpu.dcache.overallMshrMissRate::total     0.003202                       # mshr miss ratio for overall accesses (Ratio)
system.cpu.dcache.demandAvgMshrMissLatency::cpu.data 44290.894787                       # average overall mshr miss latency ((Tick/Count))
system.cpu.dcache.demandAvgMshrMissLatency::total 44290.894787                       # average overall mshr miss latency ((Tick/Count))
system.cpu.dcache.overallAvgMshrMissLatency::cpu.data 42650.478407                       # average overall mshr miss latency ((Tick/Count))
system.cpu.dcache.overallAvgMshrMissLatency::cpu.dcache.prefetcher 25880.089294                       # average overall mshr miss latency ((Tick/Count))
system.cpu.dcache.overallAvgMshrMissLatency::total 38302.367812                       # average overall mshr miss latency ((Tick/Count))
system.cpu.dcache.replacements                   7010                       # number of replacements (Count)
system.cpu.dcache.HardPFReq.mshrMisses::cpu.dcache.prefetcher         2083                       # number of HardPFReq MSHR misses (Count)
system.cpu.dcache.HardPFReq.mshrMisses::total         2083                       # number of HardPFReq MSHR misses (Count)
system.cpu.dcache.HardPFReq.mshrMissLatency::cpu.dcache.prefetcher     53908226                       # number of HardPFReq MSHR miss ticks (Tick)
system.cpu.dcache.HardPFReq.mshrMissLatency::total     53908226                       # number of HardPFReq MSHR miss ticks (Tick)
system.cpu.dcache.HardPFReq.mshrMissRate::cpu.dcache.prefetcher          inf                       # mshr miss rate for HardPFReq accesses (Ratio)
system.cpu.dcache.HardPFReq.mshrMissRate::total          inf                       # mshr miss rate for HardPFReq accesses (Ratio)
system.cpu.dcache.HardPFReq.avgMshrMissLatency::cpu.dcache.prefetcher 25880.089294                       # average HardPFReq mshr miss latency ((Tick/Count))
system.cpu.dcache.HardPFReq.avgMshrMissLatency::total 25880.089294                       # average HardPFReq mshr miss latency ((Tick/Count))
system.cpu.dcache.LockedRMWReadReq.hits::cpu.data           90                       # number of LockedRMWReadReq hits (Count)
system.cpu.dcache.LockedRMWReadReq.hits::total           90                       # number of LockedRMWReadReq hits (Count)
system.cpu.dcache.LockedRMWReadReq.accesses::cpu.data           90                       # number of LockedRMWReadReq accesses(hits+misses) (Count)
system.cpu.dcache.LockedRMWReadReq.accesses::total           90                       # number of LockedRMWReadReq accesses(hits+misses) (Count)
system.cpu.dcache.LockedRMWReadReq.mshrMissLatency::cpu.data       540000                       # number of LockedRMWReadReq MSHR miss ticks (Tick)
system.cpu.dcache.LockedRMWReadReq.mshrMissLatency::total       540000                       # number of LockedRMWReadReq MSHR miss ticks (Tick)
system.cpu.dcache.LockedRMWReadReq.avgMshrMissLatency::cpu.data          inf                       # average LockedRMWReadReq mshr miss latency ((Tick/Count))
system.cpu.dcache.LockedRMWReadReq.avgMshrMissLatency::total          inf                       # average LockedRMWReadReq mshr miss latency ((Tick/Count))
system.cpu.dcache.LockedRMWWriteReq.hits::cpu.data           90                       # number of LockedRMWWriteReq hits (Count)
system.cpu.dcache.LockedRMWWriteReq.hits::total           90                       # number of LockedRMWWriteReq hits (Count)
system.cpu.dcache.LockedRMWWriteReq.accesses::cpu.data           90                       # number of LockedRMWWriteReq accesses(hits+misses) (Count)
system.cpu.dcache.LockedRMWWriteReq.accesses::total           90                       # number of LockedRMWWriteReq accesses(hits+misses) (Count)
system.cpu.dcache.ReadReq.hits::cpu.data      2095277                       # number of ReadReq hits (Count)
system.cpu.dcache.ReadReq.hits::total         2095277                       # number of ReadReq hits (Count)
system.cpu.dcache.ReadReq.misses::cpu.data         5137                       # number of ReadReq misses (Count)
system.cpu.dcache.ReadReq.misses::total          5137                       # number of ReadReq misses (Count)
system.cpu.dcache.ReadReq.missLatency::cpu.data    213190000                       # number of ReadReq miss ticks (Tick)
system.cpu.dcache.ReadReq.missLatency::total    213190000                       # number of ReadReq miss ticks (Tick)
system.cpu.dcache.ReadReq.accesses::cpu.data      2100414                       # number of ReadReq accesses(hits+misses) (Count)
system.cpu.dcache.ReadReq.accesses::total      2100414                       # number of ReadReq accesses(hits+misses) (Count)
system.cpu.dcache.ReadReq.missRate::cpu.data     0.002446                       # miss rate for ReadReq accesses (Ratio)
system.cpu.dcache.ReadReq.missRate::total     0.002446                       # miss rate for ReadReq accesses (Ratio)
system.cpu.dcache.ReadReq.avgMissLatency::cpu.data 41500.875998                       # average ReadReq miss latency ((Tick/Count))
system.cpu.dcache.ReadReq.avgMissLatency::total 41500.875998                       # average ReadReq miss latency ((Tick/Count))
system.cpu.dcache.ReadReq.mshrHits::cpu.data         3683                       # number of ReadReq MSHR hits (Count)
system.cpu.dcache.ReadReq.mshrHits::total         3683                       # number of ReadReq MSHR hits (Count)
system.cpu.dcache.ReadReq.mshrMisses::cpu.data         1454                       # number of ReadReq MSHR misses (Count)
system.cpu.dcache.ReadReq.mshrMisses::total         1454                       # number of ReadReq MSHR misses (Count)
system.cpu.dcache.ReadReq.mshrMissLatency::cpu.data     67150000                       # number of ReadReq MSHR miss ticks (Tick)
system.cpu.dcache.ReadReq.mshrMissLatency::total     67150000                       # number of ReadReq MSHR miss ticks (Tick)
system.cpu.dcache.ReadReq.mshrMissRate::cpu.data     0.000692                       # mshr miss rate for ReadReq accesses (Ratio)
system.cpu.dcache.ReadReq.mshrMissRate::total     0.000692                       # mshr miss rate for ReadReq accesses (Ratio)
system.cpu.dcache.ReadReq.avgMshrMissLatency::cpu.data 46182.943604                       # average ReadReq mshr miss latency ((Tick/Count))
system.cpu.dcache.ReadReq.avgMshrMissLatency::total 46182.943604                       # average ReadReq mshr miss latency ((Tick/Count))
system.cpu.dcache.SoftPFReq.hits::cpu.data           21                       # number of SoftPFReq hits (Count)
system.cpu.dcache.SoftPFReq.hits::total            21                       # number of SoftPFReq hits (Count)
system.cpu.dcache.SoftPFReq.misses::cpu.data          657                       # number of SoftPFReq misses (Count)
system.cpu.dcache.SoftPFReq.misses::total          657                       # number of SoftPFReq misses (Count)
system.cpu.dcache.SoftPFReq.accesses::cpu.data          678                       # number of SoftPFReq accesses(hits+misses) (Count)
system.cpu.dcache.SoftPFReq.accesses::total          678                       # number of SoftPFReq accesses(hits+misses) (Count)
system.cpu.dcache.SoftPFReq.missRate::cpu.data     0.969027                       # miss rate for SoftPFReq accesses (Ratio)
system.cpu.dcache.SoftPFReq.missRate::total     0.969027                       # miss rate for SoftPFReq accesses (Ratio)
system.cpu.dcache.SoftPFReq.mshrMisses::cpu.data          657                       # number of SoftPFReq MSHR misses (Count)
system.cpu.dcache.SoftPFReq.mshrMisses::total          657                       # number of SoftPFReq MSHR misses (Count)
system.cpu.dcache.SoftPFReq.mshrMissLatency::cpu.data     19337000                       # number of SoftPFReq MSHR miss ticks (Tick)
system.cpu.dcache.SoftPFReq.mshrMissLatency::total     19337000                       # number of SoftPFReq MSHR miss ticks (Tick)
system.cpu.dcache.SoftPFReq.mshrMissRate::cpu.data     0.969027                       # mshr miss rate for SoftPFReq accesses (Ratio)
system.cpu.dcache.SoftPFReq.mshrMissRate::total     0.969027                       # mshr miss rate for SoftPFReq accesses (Ratio)
system.cpu.dcache.SoftPFReq.avgMshrMissLatency::cpu.data 29432.267884                       # average SoftPFReq mshr miss latency ((Tick/Count))
system.cpu.dcache.SoftPFReq.avgMshrMissLatency::total 29432.267884                       # average SoftPFReq mshr miss latency ((Tick/Count))
system.cpu.dcache.WriteReq.hits::cpu.data       404276                       # number of WriteReq hits (Count)
system.cpu.dcache.WriteReq.hits::total         404276                       # number of WriteReq hits (Count)
system.cpu.dcache.WriteReq.misses::cpu.data         3901                       # number of WriteReq misses (Count)
system.cpu.dcache.WriteReq.misses::total         3901                       # number of WriteReq misses (Count)
system.cpu.dcache.WriteReq.missLatency::cpu.data    173752996                       # number of WriteReq miss ticks (Tick)
system.cpu.dcache.WriteReq.missLatency::total    173752996                       # number of WriteReq miss ticks (Tick)
system.cpu.dcache.WriteReq.accesses::cpu.data       408177                       # number of WriteReq accesses(hits+misses) (Count)
system.cpu.dcache.WriteReq.accesses::total       408177                       # number of WriteReq accesses(hits+misses) (Count)
system.cpu.dcache.WriteReq.missRate::cpu.data     0.009557                       # miss rate for WriteReq accesses (Ratio)
system.cpu.dcache.WriteReq.missRate::total     0.009557                       # miss rate for WriteReq accesses (Ratio)
system.cpu.dcache.WriteReq.avgMissLatency::cpu.data 44540.629582                       # average WriteReq miss latency ((Tick/Count))
system.cpu.dcache.WriteReq.avgMissLatency::total 44540.629582                       # average WriteReq miss latency ((Tick/Count))
system.cpu.dcache.WriteReq.mshrHits::cpu.data           61                       # number of WriteReq MSHR hits (Count)
system.cpu.dcache.WriteReq.mshrHits::total           61                       # number of WriteReq MSHR hits (Count)
system.cpu.dcache.WriteReq.mshrMisses::cpu.data         3840                       # number of WriteReq MSHR misses (Count)
system.cpu.dcache.WriteReq.mshrMisses::total         3840                       # number of WriteReq MSHR misses (Count)
system.cpu.dcache.WriteReq.mshrMissLatency::cpu.data    167325997                       # number of WriteReq MSHR miss ticks (Tick)
system.cpu.dcache.WriteReq.mshrMissLatency::total    167325997                       # number of WriteReq MSHR miss ticks (Tick)
system.cpu.dcache.WriteReq.mshrMissRate::cpu.data     0.009408                       # mshr miss rate for WriteReq accesses (Ratio)
system.cpu.dcache.WriteReq.mshrMissRate::total     0.009408                       # mshr miss rate for WriteReq accesses (Ratio)
system.cpu.dcache.WriteReq.avgMshrMissLatency::cpu.data 43574.478385                       # average WriteReq mshr miss latency ((Tick/Count))
system.cpu.dcache.WriteReq.avgMshrMissLatency::total 43574.478385                       # average WriteReq mshr miss latency ((Tick/Count))
system.cpu.dcache.power_state.pwrStateResidencyTicks::UNDEFINED   7831963000                       # Cumulative time (in ticks) in various power states (Tick)
system.cpu.dcache.prefetcher.demandMshrMisses         5294                       # demands not covered by prefetchs (Count)
system.cpu.dcache.prefetcher.pfIssued            2402                       # number of hwpf issued (Count)
system.cpu.dcache.prefetcher.pfUnused              23                       # number of HardPF blocks evicted w/o reference (Count)
system.cpu.dcache.prefetcher.pfUseful            1890                       # number of useful prefetch (Count)
system.cpu.dcache.prefetcher.pfUsefulButMiss            0                       # number of hit on prefetch but cache block is not in an usable state (Count)
system.cpu.dcache.prefetcher.accuracy        0.786844                       # accuracy of the prefetcher (Count)
system.cpu.dcache.prefetcher.coverage        0.263085                       # coverage brought by this prefetcher (Count)
system.cpu.dcache.prefetcher.pfHitInCache          312                       # number of prefetches hitting in cache (Count)
system.cpu.dcache.prefetcher.pfHitInMSHR            7                       # number of prefetches hitting in a MSHR (Count)
system.cpu.dcache.prefetcher.pfHitInWB              0                       # number of prefetches hit in the Write Buffer (Count)
system.cpu.dcache.prefetcher.pfLate               319                       # number of late prefetches (hitting in cache, MSHR or WB) (Count)
system.cpu.dcache.prefetcher.pfIdentified         5542                       # number of prefetch candidates identified (Count)
system.cpu.dcache.prefetcher.pfBufferHit         2328                       # number of redundant prefetches already in prefetch queue (Count)
system.cpu.dcache.prefetcher.pfInCache              0                       # number of redundant prefetches already in cache/mshr dropped (Count)
system.cpu.dcache.prefetcher.pfRemovedDemand          121                       # number of prefetches dropped due to a demand for the same address (Count)
system.cpu.dcache.prefetcher.pfRemovedFull            0                       # number of prefetches dropped due to prefetch queue size (Count)
system.cpu.dcache.prefetcher.pfSpanPage          1162                       # number of prefetches that crossed the page (Count)
system.cpu.dcache.prefetcher.pfUsefulSpanPage            0                       # number of prefetches that is useful and crossed the page (Count)
system.cpu.dcache.prefetcher.power_state.pwrStateResidencyTicks::UNDEFINED   7831963000                       # Cumulative time (in ticks) in various power states (Tick)
system.cpu.dcache.tags.tagsInUse           960.632639                       # Average ticks per tags in use ((Tick/Count))
system.cpu.dcache.tags.totalRefs              2507788                       # Total number of references to valid blocks. (Count)
system.cpu.dcache.tags.sampledRefs               8034                       # Sample count of references to valid blocks. (Count)
system.cpu.dcache.tags.avgRefs             312.146876                       # Average number of references to valid blocks. ((Count/Count))
system.cpu.dcache.tags.warmupTick              231000                       # The tick when the warmup percentage was hit. (Tick)
system.cpu.dcache.tags.occupancies::cpu.data   764.861456                       # Average occupied blocks per tick, per requestor ((Count/Tick))
system.cpu.dcache.tags.occupancies::cpu.dcache.prefetcher   195.771183                       # Average occupied blocks per tick, per requestor ((Count/Tick))
system.cpu.dcache.tags.avgOccs::cpu.data     0.746935                       # Average percentage of cache occupancy ((Ratio/Tick))
system.cpu.dcache.tags.avgOccs::cpu.dcache.prefetcher     0.191183                       # Average percentage of cache occupancy ((Ratio/Tick))
system.cpu.dcache.tags.avgOccs::total        0.938118                       # Average percentage of cache occupancy ((Ratio/Tick))
system.cpu.dcache.tags.occupanciesTaskId::1022          248                       # Occupied blocks per task id (Count)
system.cpu.dcache.tags.occupanciesTaskId::1024          776                       # Occupied blocks per task id (Count)
system.cpu.dcache.tags.ageTaskId_1022::1           19                       # Occupied blocks per task id, per block age (Count)
system.cpu.dcache.tags.ageTaskId_1022::2          229                       # Occupied blocks per task id, per block age (Count)
system.cpu.dcache.tags.ageTaskId_1024::0            7                       # Occupied blocks per task id, per block age (Count)
system.cpu.dcache.tags.ageTaskId_1024::1           61                       # Occupied blocks per task id, per block age (Count)
system.cpu.dcache.tags.ageTaskId_1024::2          708                       # Occupied blocks per task id, per block age (Count)
system.cpu.dcache.tags.ratioOccsTaskId::1022     0.242188                       # Ratio of occupied blocks and all blocks, per task id (Ratio)
system.cpu.dcache.tags.ratioOccsTaskId::1024     0.757812                       # Ratio of occupied blocks and all blocks, per task id (Ratio)
system.cpu.dcache.tags.tagAccesses           10045830                       # Number of tag accesses (Count)
system.cpu.dcache.tags.dataAccesses          10045830                       # Number of data accesses (Count)
system.cpu.dcache.tags.power_state.pwrStateResidencyTicks::UNDEFINED   7831963000                       # Cumulative time (in ticks) in various power states (Tick)
system.cpu.decode.idleCycles                   339739                       # Number of cycles decode is idle (Cycle)
system.cpu.decode.blockedCycles               6346986                       # Number of cycles decode is blocked (Cycle)
system.cpu.decode.runCycles                    425879                       # Number of cycles decode is running (Cycle)
system.cpu.decode.unblockCycles                659477                       # Number of cycles decode is unblocking (Cycle)
system.cpu.decode.squashCycles                  24230                       # Number of cycles decode is squashing (Cycle)
system.cpu.decode.branchResolved               306402                       # Number of times decode resolved a branch (Count)
system.cpu.decode.branchMispred                  1716                       # Number of times decode detected a branch misprediction (Count)
system.cpu.decode.decodedInsts                8415616                       # Number of instructions handled by decode (Count)
system.cpu.decode.squashedInsts                  6247                       # Number of squashed instructions handled by decode (Count)
system.cpu.fetch.icacheStallCycles             707682                       # Number of cycles fetch is stalled on an Icache miss (Cycle)
system.cpu.fetch.insts                        6550609                       # Number of instructions fetch has processed (Count)
system.cpu.fetch.branches                      510642                       # Number of branches that fetch encountered (Count)
system.cpu.fetch.predictedBranches             370446                       # Number of branches that fetch has predicted taken (Count)
system.cpu.fetch.cycles                       7062416                       # Number of cycles fetch has run and was not squashing or blocked (Cycle)
system.cpu.fetch.squashCycles                   51872                       # Number of cycles fetch has spent squashing (Cycle)
system.cpu.fetch.miscStallCycles                   39                       # Number of cycles fetch has spent waiting on interrupts, or bad addresses, or out of MSHRs (Cycle)
system.cpu.fetch.pendingTrapStallCycles           238                       # Number of stall cycles due to pending traps (Cycle)
system.cpu.fetch.cacheLines                    647139                       # Number of cache lines fetched (Count)
system.cpu.fetch.icacheSquashes                  3086                       # Number of outstanding Icache misses that were squashed (Count)
system.cpu.fetch.nisnDist::samples            7796311                       # Number of instructions fetched each cycle (Total) (Count)
system.cpu.fetch.nisnDist::mean              1.197481                       # Number of instructions fetched each cycle (Total) (Count)
system.cpu.fetch.nisnDist::stdev             2.596075                       # Number of instructions fetched each cycle (Total) (Count)
system.cpu.fetch.nisnDist::underflows               0      0.00%      0.00% # Number of instructions fetched each cycle (Total) (Count)
system.cpu.fetch.nisnDist::0                  6140014     78.76%     78.76% # Number of instructions fetched each cycle (Total) (Count)
system.cpu.fetch.nisnDist::1                   143241      1.84%     80.59% # Number of instructions fetched each cycle (Total) (Count)
system.cpu.fetch.nisnDist::2                   164591      2.11%     82.70% # Number of instructions fetched each cycle (Total) (Count)
system.cpu.fetch.nisnDist::3                   172929      2.22%     84.92% # Number of instructions fetched each cycle (Total) (Count)
system.cpu.fetch.nisnDist::4                    88748      1.14%     86.06% # Number of instructions fetched each cycle (Total) (Count)
system.cpu.fetch.nisnDist::5                   119457      1.53%     87.59% # Number of instructions fetched each cycle (Total) (Count)
system.cpu.fetch.nisnDist::6                   121560      1.56%     89.15% # Number of instructions fetched each cycle (Total) (Count)
system.cpu.fetch.nisnDist::7                   103079      1.32%     90.47% # Number of instructions fetched each cycle (Total) (Count)
system.cpu.fetch.nisnDist::8                   742692      9.53%    100.00% # Number of instructions fetched each cycle (Total) (Count)
system.cpu.fetch.nisnDist::overflows                0      0.00%    100.00% # Number of instructions fetched each cycle (Total) (Count)
system.cpu.fetch.nisnDist::min_value                0                       # Number of instructions fetched each cycle (Total) (Count)
system.cpu.fetch.nisnDist::max_value                8                       # Number of instructions fetched each cycle (Total) (Count)
system.cpu.fetch.nisnDist::total              7796311                       # Number of instructions fetched each cycle (Total) (Count)
system.cpu.fetch.branchRate                  0.065200                       # Number of branch fetches per cycle (Ratio)
system.cpu.fetch.rate                        0.836392                       # Number of inst fetches per cycle ((Count/Cycle))
system.cpu.icache.demandHits::cpu.inst         644972                       # number of demand (read+write) hits (Count)
system.cpu.icache.demandHits::total            644972                       # number of demand (read+write) hits (Count)
system.cpu.icache.overallHits::cpu.inst        644972                       # number of overall hits (Count)
system.cpu.icache.overallHits::total           644972                       # number of overall hits (Count)
system.cpu.icache.demandMisses::cpu.inst         2167                       # number of demand (read+write) misses (Count)
system.cpu.icache.demandMisses::total            2167                       # number of demand (read+write) misses (Count)
system.cpu.icache.overallMisses::cpu.inst         2167                       # number of overall misses (Count)
system.cpu.icache.overallMisses::total           2167                       # number of overall misses (Count)
system.cpu.icache.demandMissLatency::cpu.inst    157843000                       # number of demand (read+write) miss ticks (Tick)
system.cpu.icache.demandMissLatency::total    157843000                       # number of demand (read+write) miss ticks (Tick)
system.cpu.icache.overallMissLatency::cpu.inst    157843000                       # number of overall miss ticks (Tick)
system.cpu.icache.overallMissLatency::total    157843000                       # number of overall miss ticks (Tick)
system.cpu.icache.demandAccesses::cpu.inst       647139                       # number of demand (read+write) accesses (Count)
system.cpu.icache.demandAccesses::total        647139                       # number of demand (read+write) accesses (Count)
system.cpu.icache.overallAccesses::cpu.inst       647139                       # number of overall (read+write) accesses (Count)
system.cpu.icache.overallAccesses::total       647139                       # number of overall (read+write) accesses (Count)
system.cpu.icache.demandMissRate::cpu.inst     0.003349                       # miss rate for demand accesses (Ratio)
system.cpu.icache.demandMissRate::total      0.003349                       # miss rate for demand accesses (Ratio)
system.cpu.icache.overallMissRate::cpu.inst     0.003349                       # miss rate for overall accesses (Ratio)
system.cpu.icache.overallMissRate::total     0.003349                       # miss rate for overall accesses (Ratio)
system.cpu.icache.demandAvgMissLatency::cpu.inst 72839.409322                       # average overall miss latency in ticks ((Tick/Count))
system.cpu.icache.demandAvgMissLatency::total 72839.409322                       # average overall miss latency in ticks ((Tick/Count))
system.cpu.icache.overallAvgMissLatency::cpu.inst 72839.409322                       # average overall miss latency ((Tick/Count))
system.cpu.icache.overallAvgMissLatency::total 72839.409322                       # average overall miss latency ((Tick/Count))
system.cpu.icache.blockedCycles::no_mshrs          169                       # number of cycles access was blocked (Cycle)
system.cpu.icache.blockedCycles::no_targets            0                       # number of cycles access was blocked (Cycle)
system.cpu.icache.blockedCauses::no_mshrs            5                       # number of times access was blocked (Count)
system.cpu.icache.blockedCauses::no_targets            0                       # number of times access was blocked (Count)
system.cpu.icache.avgBlocked::no_mshrs      33.800000                       # average number of cycles each access was blocked ((Cycle/Count))
system.cpu.icache.avgBlocked::no_targets          nan                       # average number of cycles each access was blocked ((Cycle/Count))
system.cpu.icache.demandMshrHits::cpu.inst          572                       # number of demand (read+write) MSHR hits (Count)
system.cpu.icache.demandMshrHits::total           572                       # number of demand (read+write) MSHR hits (Count)
system.cpu.icache.overallMshrHits::cpu.inst          572                       # number of overall MSHR hits (Count)
system.cpu.icache.overallMshrHits::total          572                       # number of overall MSHR hits (Count)
system.cpu.icache.demandMshrMisses::cpu.inst         1595                       # number of demand (read+write) MSHR misses (Count)
system.cpu.icache.demandMshrMisses::total         1595                       # number of demand (read+write) MSHR misses (Count)
system.cpu.icache.overallMshrMisses::cpu.inst         1595                       # number of overall MSHR misses (Count)
system.cpu.icache.overallMshrMisses::total         1595                       # number of overall MSHR misses (Count)
system.cpu.icache.demandMshrMissLatency::cpu.inst    126054000                       # number of demand (read+write) MSHR miss ticks (Tick)
system.cpu.icache.demandMshrMissLatency::total    126054000                       # number of demand (read+write) MSHR miss ticks (Tick)
system.cpu.icache.overallMshrMissLatency::cpu.inst    126054000                       # number of overall MSHR miss ticks (Tick)
system.cpu.icache.overallMshrMissLatency::total    126054000                       # number of overall MSHR miss ticks (Tick)
system.cpu.icache.demandMshrMissRate::cpu.inst     0.002465                       # mshr miss ratio for demand accesses (Ratio)
system.cpu.icache.demandMshrMissRate::total     0.002465                       # mshr miss ratio for demand accesses (Ratio)
system.cpu.icache.overallMshrMissRate::cpu.inst     0.002465                       # mshr miss ratio for overall accesses (Ratio)
system.cpu.icache.overallMshrMissRate::total     0.002465                       # mshr miss ratio for overall accesses (Ratio)
system.cpu.icache.demandAvgMshrMissLatency::cpu.inst 79030.721003                       # average overall mshr miss latency ((Tick/Count))
system.cpu.icache.demandAvgMshrMissLatency::total 79030.721003                       # average overall mshr miss latency ((Tick/Count))
system.cpu.icache.overallAvgMshrMissLatency::cpu.inst 79030.721003                       # average overall mshr miss latency ((Tick/Count))
system.cpu.icache.overallAvgMshrMissLatency::total 79030.721003                       # average overall mshr miss latency ((Tick/Count))
system.cpu.icache.replacements                    599                       # number of replacements (Count)
system.cpu.icache.ReadReq.hits::cpu.inst       644972                       # number of ReadReq hits (Count)
system.cpu.icache.ReadReq.hits::total          644972                       # number of ReadReq hits (Count)
system.cpu.icache.ReadReq.misses::cpu.inst         2167                       # number of ReadReq misses (Count)
system.cpu.icache.ReadReq.misses::total          2167                       # number of ReadReq misses (Count)
system.cpu.icache.ReadReq.missLatency::cpu.inst    157843000                       # number of ReadReq miss ticks (Tick)
system.cpu.icache.ReadReq.missLatency::total    157843000                       # number of ReadReq miss ticks (Tick)
system.cpu.icache.ReadReq.accesses::cpu.inst       647139                       # number of ReadReq accesses(hits+misses) (Count)
system.cpu.icache.ReadReq.accesses::total       647139                       # number of ReadReq accesses(hits+misses) (Count)
system.cpu.icache.ReadReq.missRate::cpu.inst     0.003349                       # miss rate for ReadReq accesses (Ratio)
system.cpu.icache.ReadReq.missRate::total     0.003349                       # miss rate for ReadReq accesses (Ratio)
system.cpu.icache.ReadReq.avgMissLatency::cpu.inst 72839.409322                       # average ReadReq miss latency ((Tick/Count))
system.cpu.icache.ReadReq.avgMissLatency::total 72839.409322                       # average ReadReq miss latency ((Tick/Count))
system.cpu.icache.ReadReq.mshrHits::cpu.inst          572                       # number of ReadReq MSHR hits (Count)
system.cpu.icache.ReadReq.mshrHits::total          572                       # number of ReadReq MSHR hits (Count)
system.cpu.icache.ReadReq.mshrMisses::cpu.inst         1595                       # number of ReadReq MSHR misses (Count)
system.cpu.icache.ReadReq.mshrMisses::total         1595                       # number of ReadReq MSHR misses (Count)
system.cpu.icache.ReadReq.mshrMissLatency::cpu.inst    126054000                       # number of ReadReq MSHR miss ticks (Tick)
system.cpu.icache.ReadReq.mshrMissLatency::total    126054000                       # number of ReadReq MSHR miss ticks (Tick)
system.cpu.icache.ReadReq.mshrMissRate::cpu.inst     0.002465                       # mshr miss rate for ReadReq accesses (Ratio)
system.cpu.icache.ReadReq.mshrMissRate::total     0.002465                       # mshr miss rate for ReadReq accesses (Ratio)
system.cpu.icache.ReadReq.avgMshrMissLatency::cpu.inst 79030.721003                       # average ReadReq mshr miss latency ((Tick/Count))
system.cpu.icache.ReadReq.avgMshrMissLatency::total 79030.721003                       # average ReadReq mshr miss latency ((Tick/Count))
system.cpu.icache.power_state.pwrStateResidencyTicks::UNDEFINED   7831963000                       # Cumulative time (in ticks) in various power states (Tick)
system.cpu.icache.prefetcher.demandMshrMisses         1595                       # demands not covered by prefetchs (Count)
system.cpu.icache.prefetcher.pfIssued               0                       # number of hwpf issued (Count)
system.cpu.icache.prefetcher.pfUseful               0                       # number of useful prefetch (Count)
system.cpu.icache.prefetcher.pfUsefulButMiss            0                       # number of hit on prefetch but cache block is not in an usable state (Count)
system.cpu.icache.prefetcher.accuracy             nan                       # accuracy of the prefetcher (Count)
system.cpu.icache.prefetcher.coverage               0                       # coverage brought by this prefetcher (Count)
system.cpu.icache.prefetcher.pfHitInCache            0                       # number of prefetches hitting in cache (Count)
system.cpu.icache.prefetcher.pfHitInMSHR            0                       # number of prefetches hitting in a MSHR (Count)
system.cpu.icache.prefetcher.pfHitInWB              0                       # number of prefetches hit in the Write Buffer (Count)
system.cpu.icache.prefetcher.pfLate                 0                       # number of late prefetches (hitting in cache, MSHR or WB) (Count)
system.cpu.icache.prefetcher.pfIdentified            0                       # number of prefetch candidates identified (Count)
system.cpu.icache.prefetcher.pfBufferHit            0                       # number of redundant prefetches already in prefetch queue (Count)
system.cpu.icache.prefetcher.pfInCache              0                       # number of redundant prefetches already in cache/mshr dropped (Count)
system.cpu.icache.prefetcher.pfRemovedDemand            0                       # number of prefetches dropped due to a demand for the same address (Count)
system.cpu.icache.prefetcher.pfRemovedFull            0                       # number of prefetches dropped due to prefetch queue size (Count)
system.cpu.icache.prefetcher.pfSpanPage             0                       # number of prefetches that crossed the page (Count)
system.cpu.icache.prefetcher.pfUsefulSpanPage            0                       # number of prefetches that is useful and crossed the page (Count)
system.cpu.icache.prefetcher.power_state.pwrStateResidencyTicks::UNDEFINED   7831963000                       # Cumulative time (in ticks) in various power states (Tick)
system.cpu.icache.tags.tagsInUse           974.745261                       # Average ticks per tags in use ((Tick/Count))
system.cpu.icache.tags.totalRefs               646567                       # Total number of references to valid blocks. (Count)
system.cpu.icache.tags.sampledRefs               1595                       # Sample count of references to valid blocks. (Count)
system.cpu.icache.tags.avgRefs             405.371160                       # Average number of references to valid blocks. ((Count/Count))
system.cpu.icache.tags.warmupTick               88000                       # The tick when the warmup percentage was hit. (Tick)
system.cpu.icache.tags.occupancies::cpu.inst   974.745261                       # Average occupied blocks per tick, per requestor ((Count/Tick))
system.cpu.icache.tags.avgOccs::cpu.inst     0.951900                       # Average percentage of cache occupancy ((Ratio/Tick))
system.cpu.icache.tags.avgOccs::total        0.951900                       # Average percentage of cache occupancy ((Ratio/Tick))
system.cpu.icache.tags.occupanciesTaskId::1024          996                       # Occupied blocks per task id (Count)
system.cpu.icache.tags.ageTaskId_1024::2           32                       # Occupied blocks per task id, per block age (Count)
[...]
system.mem_ctrl.dram.numWrites::writebacks           23                       # Number of write requests responded to by this memory (Count)
system.mem_ctrl.dram.numWrites::total              23                       # Number of write requests responded to by this memory (Count)
system.mem_ctrl.dram.bwRead::cpu.inst        12584329                       # Total read bandwidth from this memory ((Byte/Second))
system.mem_ctrl.dram.bwRead::cpu.data        19701830                       # Total read bandwidth from this memory ((Byte/Second))
system.mem_ctrl.dram.bwRead::cpu.dcache.prefetcher      3064366                       # Total read bandwidth from this memory ((Byte/Second))
system.mem_ctrl.dram.bwRead::l2cache.prefetcher      3325858                       # Total read bandwidth from this memory ((Byte/Second))
system.mem_ctrl.dram.bwRead::total           38676383                       # Total read bandwidth from this memory ((Byte/Second))
system.mem_ctrl.dram.bwInstRead::cpu.inst     12584329                       # Instruction read bandwidth from this memory ((Byte/Second))
system.mem_ctrl.dram.bwInstRead::total       12584329                       # Instruction read bandwidth from this memory ((Byte/Second))
system.mem_ctrl.dram.bwWrite::writebacks       187948                       # Write bandwidth from this memory ((Byte/Second))
system.mem_ctrl.dram.bwWrite::total            187948                       # Write bandwidth from this memory ((Byte/Second))
system.mem_ctrl.dram.bwTotal::writebacks       187948                       # Total bandwidth to/from this memory ((Byte/Second))
system.mem_ctrl.dram.bwTotal::cpu.inst       12584329                       # Total bandwidth to/from this memory ((Byte/Second))
system.mem_ctrl.dram.bwTotal::cpu.data       19701830                       # Total bandwidth to/from this memory ((Byte/Second))
system.mem_ctrl.dram.bwTotal::cpu.dcache.prefetcher      3064366                       # Total bandwidth to/from this memory ((Byte/Second))
system.mem_ctrl.dram.bwTotal::l2cache.prefetcher      3325858                       # Total bandwidth to/from this memory ((Byte/Second))
system.mem_ctrl.dram.bwTotal::total          38864331                       # Total bandwidth to/from this memory ((Byte/Second))
system.mem_ctrl.dram.readBursts                  4731                       # Number of DRAM read bursts (Count)
system.mem_ctrl.dram.writeBursts                    0                       # Number of DRAM write bursts (Count)
system.mem_ctrl.dram.perBankRdBursts::0           199                       # Per bank write bursts (Count)
system.mem_ctrl.dram.perBankRdBursts::1           234                       # Per bank write bursts (Count)
system.mem_ctrl.dram.perBankRdBursts::2           324                       # Per bank write bursts (Count)
system.mem_ctrl.dram.perBankRdBursts::3           198                       # Per bank write bursts (Count)
system.mem_ctrl.dram.perBankRdBursts::4           363                       # Per bank write bursts (Count)
system.mem_ctrl.dram.perBankRdBursts::5           299                       # Per bank write bursts (Count)
system.mem_ctrl.dram.perBankRdBursts::6           219                       # Per bank write bursts (Count)
system.mem_ctrl.dram.perBankRdBursts::7           264                       # Per bank write bursts (Count)
system.mem_ctrl.dram.perBankRdBursts::8           467                       # Per bank write bursts (Count)
system.mem_ctrl.dram.perBankRdBursts::9           364                       # Per bank write bursts (Count)
system.mem_ctrl.dram.perBankRdBursts::10          455                       # Per bank write bursts (Count)
system.mem_ctrl.dram.perBankRdBursts::11          492                       # Per bank write bursts (Count)
system.mem_ctrl.dram.perBankRdBursts::12          255                       # Per bank write bursts (Count)
system.mem_ctrl.dram.perBankRdBursts::13          209                       # Per bank write bursts (Count)
system.mem_ctrl.dram.perBankRdBursts::14          181                       # Per bank write bursts (Count)
system.mem_ctrl.dram.perBankRdBursts::15          208                       # Per bank write bursts (Count)
system.mem_ctrl.dram.perBankWrBursts::0             0                       # Per bank write bursts (Count)
system.mem_ctrl.dram.perBankWrBursts::1             0                       # Per bank write bursts (Count)
system.mem_ctrl.dram.perBankWrBursts::2             0                       # Per bank write bursts (Count)
system.mem_ctrl.dram.perBankWrBursts::3             0                       # Per bank write bursts (Count)
system.mem_ctrl.dram.perBankWrBursts::4             0                       # Per bank write bursts (Count)
system.mem_ctrl.dram.perBankWrBursts::5             0                       # Per bank write bursts (Count)
system.mem_ctrl.dram.perBankWrBursts::6             0                       # Per bank write bursts (Count)
system.mem_ctrl.dram.perBankWrBursts::7             0                       # Per bank write bursts (Count)
system.mem_ctrl.dram.perBankWrBursts::8             0                       # Per bank write bursts (Count)
system.mem_ctrl.dram.perBankWrBursts::9             0                       # Per bank write bursts (Count)
system.mem_ctrl.dram.perBankWrBursts::10            0                       # Per bank write bursts (Count)
system.mem_ctrl.dram.perBankWrBursts::11            0                       # Per bank write bursts (Count)
system.mem_ctrl.dram.perBankWrBursts::12            0                       # Per bank write bursts (Count)
system.mem_ctrl.dram.perBankWrBursts::13            0                       # Per bank write bursts (Count)
system.mem_ctrl.dram.perBankWrBursts::14            0                       # Per bank write bursts (Count)
system.mem_ctrl.dram.perBankWrBursts::15            0                       # Per bank write bursts (Count)
system.mem_ctrl.dram.totQLat                 47204012                       # Total ticks spent queuing (Tick)
system.mem_ctrl.dram.totBusLat               23655000                       # Total ticks spent in databus transfers (Tick)
system.mem_ctrl.dram.totMemAccLat           135910262                       # Total ticks spent from burst creation until serviced by the DRAM (Tick)
system.mem_ctrl.dram.avgQLat                  9977.60                       # Average queueing delay per DRAM burst ((Tick/Count))
system.mem_ctrl.dram.avgBusLat                5000.00                       # Average bus latency per DRAM burst ((Tick/Count))
system.mem_ctrl.dram.avgMemAccLat            28727.60                       # Average memory access latency per DRAM burst ((Tick/Count))
system.mem_ctrl.dram.readRowHits                 3439                       # Number of row buffer hits during reads (Count)
system.mem_ctrl.dram.writeRowHits                   0                       # Number of row buffer hits during writes (Count)
system.mem_ctrl.dram.readRowHitRate             72.69                       # Row buffer hit rate for reads (Ratio)
system.mem_ctrl.dram.writeRowHitRate              nan                       # Row buffer hit rate for writes (Ratio)
system.mem_ctrl.dram.bytesPerActivate::samples         1292                       # Bytes accessed per row activation (Byte)
system.mem_ctrl.dram.bytesPerActivate::mean   234.352941                       # Bytes accessed per row activation (Byte)
system.mem_ctrl.dram.bytesPerActivate::gmean   153.696610                       # Bytes accessed per row activation (Byte)
system.mem_ctrl.dram.bytesPerActivate::stdev   260.649892                       # Bytes accessed per row activation (Byte)
system.mem_ctrl.dram.bytesPerActivate::0-127          447     34.60%     34.60% # Bytes accessed per row activation (Byte)
system.mem_ctrl.dram.bytesPerActivate::128-255          486     37.62%     72.21% # Bytes accessed per row activation (Byte)
system.mem_ctrl.dram.bytesPerActivate::256-383          129      9.98%     82.20% # Bytes accessed per row activation (Byte)
system.mem_ctrl.dram.bytesPerActivate::384-511           72      5.57%     87.77% # Bytes accessed per row activation (Byte)
system.mem_ctrl.dram.bytesPerActivate::512-639           35      2.71%     90.48% # Bytes accessed per row activation (Byte)
system.mem_ctrl.dram.bytesPerActivate::640-767           22      1.70%     92.18% # Bytes accessed per row activation (Byte)
system.mem_ctrl.dram.bytesPerActivate::768-895            4      0.31%     92.49% # Bytes accessed per row activation (Byte)
system.mem_ctrl.dram.bytesPerActivate::896-1023           11      0.85%     93.34% # Bytes accessed per row activation (Byte)
system.mem_ctrl.dram.bytesPerActivate::1024-1151           86      6.66%    100.00% # Bytes accessed per row activation (Byte)
system.mem_ctrl.dram.bytesPerActivate::total         1292                       # Bytes accessed per row activation (Byte)
system.mem_ctrl.dram.bytesRead                 302784                       # Total bytes read (Byte)
system.mem_ctrl.dram.bytesWritten                   0                       # Total bytes written (Byte)
system.mem_ctrl.dram.avgRdBW                38.660040                       # Average DRAM read bandwidth in MiBytes/s ((Byte/Second))
system.mem_ctrl.dram.avgWrBW                        0                       # Average DRAM write bandwidth in MiBytes/s ((Byte/Second))
system.mem_ctrl.dram.peakBW                  12800.00                       # Theoretical peak bandwidth in MiByte/s ((Byte/Second))
system.mem_ctrl.dram.busUtil                     0.30                       # Data bus utilization in percentage (Ratio)
system.mem_ctrl.dram.busUtilRead                 0.30                       # Data bus utilization in percentage for reads (Ratio)
system.mem_ctrl.dram.busUtilWrite                0.00                       # Data bus utilization in percentage for writes (Ratio)
system.mem_ctrl.dram.pageHitRate                72.69                       # Row buffer hit rate, read and write combined (Ratio)
system.mem_ctrl.dram.power_state.pwrStateResidencyTicks::UNDEFINED   7831963000                       # Cumulative time (in ticks) in various power states (Tick)
system.mem_ctrl.dram.rank0.actEnergy          4869480                       # Energy for activate commands per rank (pJ) (Joule)
system.mem_ctrl.dram.rank0.preEnergy          2588190                       # Energy for precharge commands per rank (pJ) (Joule)
system.mem_ctrl.dram.rank0.readEnergy        14994000                       # Energy for read commands per rank (pJ) (Joule)
system.mem_ctrl.dram.rank0.writeEnergy              0                       # Energy for write commands per rank (pJ) (Joule)
system.mem_ctrl.dram.rank0.refreshEnergy 617713200.000000                       # Energy for refresh commands per rank (pJ) (Joule)
system.mem_ctrl.dram.rank0.actBackEnergy    788006190                       # Energy for active background per rank (pJ) (Joule)
system.mem_ctrl.dram.rank0.preBackEnergy   2343889920                       # Energy for precharge background per rank (pJ) (Joule)
system.mem_ctrl.dram.rank0.actPowerDownEnergy            0                       # Energy for active power-down per rank (pJ) (Joule)
system.mem_ctrl.dram.rank0.prePowerDownEnergy            0                       # Energy for precharge power-down per rank (pJ) (Joule)
system.mem_ctrl.dram.rank0.selfRefreshEnergy            0                       # Energy for self refresh per rank (pJ) (Joule)
system.mem_ctrl.dram.rank0.totalEnergy     3772060980                       # Total energy per rank (pJ) (Joule)
system.mem_ctrl.dram.rank0.averagePower    481.623953                       # Core power per rank (mW) (Watt)
system.mem_ctrl.dram.rank0.totalIdleTime            0                       # Total Idle time Per DRAM Rank (Tick)
system.mem_ctrl.dram.rank0.pwrStateTime::IDLE   6086562998                       # Time in different power states (Tick)
system.mem_ctrl.dram.rank0.pwrStateTime::REF    261300000                       # Time in different power states (Tick)
system.mem_ctrl.dram.rank0.pwrStateTime::SREF            0                       # Time in different power states (Tick)
system.mem_ctrl.dram.rank0.pwrStateTime::PRE_PDN            0                       # Time in different power states (Tick)
system.mem_ctrl.dram.rank0.pwrStateTime::ACT   1484100002                       # Time in different power states (Tick)
system.mem_ctrl.dram.rank0.pwrStateTime::ACT_PDN            0                       # Time in different power states (Tick)
system.mem_ctrl.dram.rank1.actEnergy          4355400                       # Energy for activate commands per rank (pJ) (Joule)
system.mem_ctrl.dram.rank1.preEnergy          2314950                       # Energy for precharge commands per rank (pJ) (Joule)
system.mem_ctrl.dram.rank1.readEnergy        18785340                       # Energy for read commands per rank (pJ) (Joule)
system.mem_ctrl.dram.rank1.writeEnergy              0                       # Energy for write commands per rank (pJ) (Joule)
system.mem_ctrl.dram.rank1.refreshEnergy 617713200.000000                       # Energy for refresh commands per rank (pJ) (Joule)
system.mem_ctrl.dram.rank1.actBackEnergy    689709120                       # Energy for active background per rank (pJ) (Joule)
system.mem_ctrl.dram.rank1.preBackEnergy   2426666400                       # Energy for precharge background per rank (pJ) (Joule)
system.mem_ctrl.dram.rank1.actPowerDownEnergy            0                       # Energy for active power-down per rank (pJ) (Joule)
system.mem_ctrl.dram.rank1.prePowerDownEnergy            0                       # Energy for precharge power-down per rank (pJ) (Joule)
system.mem_ctrl.dram.rank1.selfRefreshEnergy            0                       # Energy for self refresh per rank (pJ) (Joule)
system.mem_ctrl.dram.rank1.totalEnergy     3759544410                       # Total energy per rank (pJ) (Joule)
system.mem_ctrl.dram.rank1.averagePower    480.025813                       # Core power per rank (mW) (Watt)
system.mem_ctrl.dram.rank1.totalIdleTime            0                       # Total Idle time Per DRAM Rank (Tick)
system.mem_ctrl.dram.rank1.pwrStateTime::IDLE   6302383250                       # Time in different power states (Tick)
system.mem_ctrl.dram.rank1.pwrStateTime::REF    261300000                       # Time in different power states (Tick)
system.mem_ctrl.dram.rank1.pwrStateTime::SREF            0                       # Time in different power states (Tick)
system.mem_ctrl.dram.rank1.pwrStateTime::PRE_PDN            0                       # Time in different power states (Tick)
system.mem_ctrl.dram.rank1.pwrStateTime::ACT   1268279750                       # Time in different power states (Tick)
system.mem_ctrl.dram.rank1.pwrStateTime::ACT_PDN            0                       # Time in different power states (Tick)
system.mem_ctrl.power_state.pwrStateResidencyTicks::UNDEFINED   7831963000                       # Cumulative time (in ticks) in various power states (Tick)
system.membus.transDist::ReadResp                3118                       # Transaction distribution (Count)
system.membus.transDist::WritebackDirty            23                       # Transaction distribution (Count)
system.membus.transDist::CleanEvict               262                       # Transaction distribution (Count)
system.membus.transDist::ReadExReq               1615                       # Transaction distribution (Count)
system.membus.transDist::ReadExResp              1615                       # Transaction distribution (Count)
system.membus.transDist::ReadSharedReq           3118                       # Transaction distribution (Count)
system.membus.pktCount_system.l2cache.mem_side_port::system.mem_ctrl.port         9751                       # Packet count per connected requestor and responder (Count)
system.membus.pktCount_system.l2cache.mem_side_port::total         9751                       # Packet count per connected requestor and responder (Count)
system.membus.pktCount::total                    9751                       # Packet count per connected requestor and responder (Count)
system.membus.pktSize_system.l2cache.mem_side_port::system.mem_ctrl.port       304384                       # Cumulative packet size per connected requestor and responder (Byte)
system.membus.pktSize_system.l2cache.mem_side_port::total       304384                       # Cumulative packet size per connected requestor and responder (Byte)
system.membus.pktSize::total                   304384                       # Cumulative packet size per connected requestor and responder (Byte)
system.membus.snoops                                0                       # Total snoops (Count)
system.membus.snoopTraffic                          0                       # Total snoop traffic (Byte)
system.membus.snoopFanout::samples               4733                       # Request fanout histogram (Count)
system.membus.snoopFanout::mean                     0                       # Request fanout histogram (Count)
system.membus.snoopFanout::stdev                    0                       # Request fanout histogram (Count)
system.membus.snoopFanout::underflows               0      0.00%      0.00% # Request fanout histogram (Count)
system.membus.snoopFanout::0                     4733    100.00%    100.00% # Request fanout histogram (Count)
system.membus.snoopFanout::1                        0      0.00%    100.00% # Request fanout histogram (Count)
system.membus.snoopFanout::overflows                0      0.00%    100.00% # Request fanout histogram (Count)
system.membus.snoopFanout::min_value                0                       # Request fanout histogram (Count)
system.membus.snoopFanout::max_value                0                       # Request fanout histogram (Count)
system.membus.snoopFanout::total                 4733                       # Request fanout histogram (Count)
system.membus.power_state.pwrStateResidencyTicks::UNDEFINED   7831963000                       # Cumulative time (in ticks) in various power states (Tick)
system.membus.reqLayer2.occupancy             5127251                       # Layer occupancy (ticks) (Tick)
system.membus.reqLayer2.utilization               0.0                       # Layer utilization (Ratio)
system.membus.respLayer0.occupancy           24993262                       # Layer occupancy (ticks) (Tick)
system.membus.respLayer0.utilization              0.0                       # Layer utilization (Ratio)
system.membus.snoop_filter.totRequests           5018                       # Total number of requests made to the snoop filter. (Count)
system.membus.snoop_filter.hitSingleRequests          285                       # Number of requests hitting in the snoop filter with a single holder of the requested data. (Count)
system.membus.snoop_filter.hitMultiRequests            0                       # Number of requests hitting in the snoop filter with multiple (>1) holders of the requested data. (Count)
system.membus.snoop_filter.totSnoops                0                       # Total number of snoops made to the snoop filter. (Count)
system.membus.snoop_filter.hitSingleSnoops            0                       # Number of snoops hitting in the snoop filter with a single holder of the requested data. (Count)
system.membus.snoop_filter.hitMultiSnoops            0                       # Number of snoops hitting in the snoop filter with multiple (>1) holders of the requested data. (Count)
system.workload.inst.arm                            0                       # number of arm instructions executed (Count)
system.workload.inst.quiesce                        0                       # number of quiesce instructions executed (Count)

---------- End Simulation Statistics   ----------
