
---------- Begin Simulation Statistics ----------
simSeconds                                   0.039192                       # Number of seconds simulated (Second)
simTicks                                  39192225000                       # Number of ticks simulated (Tick)
finalTick                                 39192225000                       # Number of ticks from beginning of simulation (restored from checkpoints and never reset) (Tick)
simFreq                                  1000000000000                       # The number of ticks per simulated second ((Tick/Second))
hostSeconds                                    312.30                       # Real time elapsed on the host (Second)
hostTickRate                                125496160                       # The number of ticks simulated per host second (ticks/s) ((Tick/Second))
hostMemory                                    8522484                       # Number of bytes of host memory used (Byte)
simInsts                                     50000000                       # Number of instructions simulated (Count)
simOps                                       58297584                       # Number of ops (including micro ops) simulated (Count)
hostInstRate                                   160103                       # Simulator instruction rate (inst/s) ((Count/Second))
hostOpRate                                     186673                       # Simulator op (including micro ops) rate (op/s) ((Count/Second))
system.clk_domain.clock                          1000                       # Clock period in ticks (Tick)
system.clk_domain.voltage_domain.voltage            1                       # Voltage in Volts (Volt)
system.cpu.numCycles                         39192238                       # Number of cpu cycles simulated (Cycle)
system.cpu.numWorkItemsStarted                      0                       # Number of work items this cpu started (Count)
system.cpu.numWorkItemsCompleted                    0                       # Number of work items this cpu completed (Count)
system.cpu.instsAdded                        59887725                       # Number of instructions added to the IQ (excludes non-spec) (Count)
system.cpu.nonSpecInstsAdded                      163                       # Number of non-speculative instructions added to the IQ (Count)
system.cpu.instsIssued                       59866911                       # Number of instructions issued (Count)
system.cpu.squashedInstsIssued                     40                       # Number of squashed instructions issued (Count)
system.cpu.squashedInstsExamined              1590189                       # Number of squashed instructions iterated over during squash; mainly for profiling (Count)
system.cpu.squashedOperandsExamined            788751                       # Number of squashed operands that are examined and possibly removed from graph (Count)
system.cpu.squashedNonSpecRemoved                 139                       # Number of squashed non-spec instructions that were removed (Count)
system.cpu.numIssuedDist::samples            39177247                       # Number of insts issued each cycle (Count)
system.cpu.numIssuedDist::mean               1.528104                       # Number of insts issued each cycle (Count)
system.cpu.numIssuedDist::stdev              1.637673                       # Number of insts issued each cycle (Count)
system.cpu.numIssuedDist::underflows                0      0.00%      0.00% # Number of insts issued each cycle (Count)
system.cpu.numIssuedDist::0                  14390250     36.73%     36.73% # Number of insts issued each cycle (Count)
system.cpu.numIssuedDist::1                   8446606     21.56%     58.29% # Number of insts issued each cycle (Count)
system.cpu.numIssuedDist::2                   6500435     16.59%     74.88% # Number of insts issued each cycle (Count)
system.cpu.numIssuedDist::3                   4398063     11.23%     86.11% # Number of insts issued each cycle (Count)
system.cpu.numIssuedDist::4                   3336787      8.52%     94.63% # Number of insts issued each cycle (Count)
system.cpu.numIssuedDist::5                   1378077      3.52%     98.14% # Number of insts issued each cycle (Count)
system.cpu.numIssuedDist::6                    290861      0.74%     98.89% # Number of insts issued each cycle (Count)
system.cpu.numIssuedDist::7                    246797      0.63%     99.52% # Number of insts issued each cycle (Count)
system.cpu.numIssuedDist::8                    189371      0.48%    100.00% # Number of insts issued each cycle (Count)
system.cpu.numIssuedDist::overflows                 0      0.00%    100.00% # Number of insts issued each cycle (Count)
system.cpu.numIssuedDist::min_value                 0                       # Number of insts issued each cycle (Count)
system.cpu.numIssuedDist::max_value                 8                       # Number of insts issued each cycle (Count)
system.cpu.numIssuedDist::total              39177247                       # Number of insts issued each cycle (Count)
system.cpu.statFuBusy::No_OpClass                   0      0.00%      0.00% # attempts to use FU when none available (Count)
system.cpu.statFuBusy::IntAlu                       0      0.00%      0.00% # attempts to use FU when none available (Count)
system.cpu.statFuBusy::IntMult                      0      0.00%      0.00% # attempts to use FU when none available (Count)
system.cpu.statFuBusy::IntDiv                       0      0.00%      0.00% # attempts to use FU when none available (Count)
system.cpu.statFuBusy::FloatAdd                     0      0.00%      0.00% # attempts to use FU when none available (Count)
system.cpu.statFuBusy::FloatCmp                     0      0.00%      0.00% # attempts to use FU when none available (Count)
system.cpu.statFuBusy::FloatCvt                     0      0.00%      0.00% # attempts to use FU when none available (Count)
system.cpu.statFuBusy::FloatMult                    0      0.00%      0.00% # attempts to use FU when none available (Count)
system.cpu.statFuBusy::FloatMultAcc                 0      0.00%      0.00% # attempts to use FU when none available (Count)
system.cpu.statFuBusy::FloatDiv                     0      0.00%      0.00% # attempts to use FU when none available (Count)
system.cpu.statFuBusy::FloatMisc                    0      0.00%      0.00% # attempts to use FU when none available (Count)
system.cpu.statFuBusy::FloatSqrt                    0      0.00%      0.00% # attempts to use FU when none available (Count)
system.cpu.statFuBusy::SimdAdd                      0      0.00%      0.00% # attempts to use FU when none available (Count)
system.cpu.statFuBusy::SimdAddAcc                   0      0.00%      0.00% # attempts to use FU when none available (Count)
system.cpu.statFuBusy::SimdAlu                     40      0.01%      0.01% # attempts to use FU when none available (Count)
system.cpu.statFuBusy::SimdCmp                      0      0.00%      0.01% # attempts to use FU when none available (Count)
system.cpu.statFuBusy::SimdCvt                     18      0.00%      0.01% # attempts to use FU when none available (Count)
system.cpu.statFuBusy::SimdMisc                     1      0.00%      0.01% # attempts to use FU when none available (Count)
system.cpu.statFuBusy::SimdMult                     0      0.00%      0.01% # attempts to use FU when none available (Count)
system.cpu.statFuBusy::SimdMultAcc                  0      0.00%      0.01% # attempts to use FU when none available (Count)
system.cpu.statFuBusy::SimdShift                    0      0.00%      0.01% # attempts to use FU when none available (Count)
system.cpu.statFuBusy::SimdShiftAcc                 0      0.00%      0.01% # attempts to use FU when none available (Count)
system.cpu.statFuBusy::SimdDiv                      0      0.00%      0.01% # attempts to use FU when none available (Count)
system.cpu.statFuBusy::SimdSqrt                     0      0.00%      0.01% # attempts to use FU when none available (Count)
system.cpu.statFuBusy::SimdFloatAdd                 0      0.00%      0.01% # attempts to use FU when none available (Count)
system.cpu.statFuBusy::SimdFloatAlu                 0      0.00%      0.01% # attempts to use FU when none available (Count)
system.cpu.statFuBusy::SimdFloatCmp                 0      0.00%      0.01% # attempts to use FU when none available (Count)
system.cpu.statFuBusy::SimdFloatCvt                 0      0.00%      0.01% # attempts to use FU when none available (Count)
system.cpu.statFuBusy::SimdFloatDiv                 0      0.00%      0.01% # attempts to use FU when none available (Count)
system.cpu.statFuBusy::SimdFloatMisc                0      0.00%      0.01% # attempts to use FU when none available (Count)
system.cpu.statFuBusy::SimdFloatMult                0      0.00%      0.01% # attempts to use FU when none available (Count)
system.cpu.statFuBusy::SimdFloatMultAcc             0      0.00%      0.01% # attempts to use FU when none available (Count)
system.cpu.statFuBusy::SimdFloatSqrt                0      0.00%      0.01% # attempts to use FU when none available (Count)
system.cpu.statFuBusy::SimdReduceAdd                0      0.00%      0.01% # attempts to use FU when none available (Count)
system.cpu.statFuBusy::SimdReduceAlu                0      0.00%      0.01% # attempts to use FU when none available (Count)
system.cpu.statFuBusy::SimdReduceCmp                0      0.00%      0.01% # attempts to use FU when none available (Count)
system.cpu.statFuBusy::SimdFloatReduceAdd            0      0.00%      0.01% # attempts to use FU when none available (Count)
system.cpu.statFuBusy::SimdFloatReduceCmp            0      0.00%      0.01% # attempts to use FU when none available (Count)
system.cpu.statFuBusy::SimdAes                      0      0.00%      0.01% # attempts to use FU when none available (Count)
system.cpu.statFuBusy::SimdAesMix                   0      0.00%      0.01% # attempts to use FU when none available (Count)
system.cpu.statFuBusy::SimdSha1Hash                 0      0.00%      0.01% # attempts to use FU when none available (Count)
system.cpu.statFuBusy::SimdSha1Hash2                0      0.00%      0.01% # attempts to use FU when none available (Count)
system.cpu.statFuBusy::SimdSha256Hash               0      0.00%      0.01% # attempts to use FU when none available (Count)
system.cpu.statFuBusy::SimdSha256Hash2              0      0.00%      0.01% # attempts to use FU when none available (Count)
system.cpu.statFuBusy::SimdShaSigma2                0      0.00%      0.01% # attempts to use FU when none available (Count)
system.cpu.statFuBusy::SimdShaSigma3                0      0.00%      0.01% # attempts to use FU when none available (Count)
system.cpu.statFuBusy::SimdPredAlu                  0      0.00%      0.01% # attempts to use FU when none available (Count)
system.cpu.statFuBusy::MemRead                 602243     99.98%     99.99% # attempts to use FU when none available (Count)
system.cpu.statFuBusy::MemWrite                    38      0.01%     99.99% # attempts to use FU when none available (Count)
system.cpu.statFuBusy::FloatMemRead                 4      0.00%    100.00% # attempts to use FU when none available (Count)
system.cpu.statFuBusy::FloatMemWrite               29      0.00%    100.00% # attempts to use FU when none available (Count)
system.cpu.statFuBusy::IprAccess                    0      0.00%    100.00% # attempts to use FU when none available (Count)
system.cpu.statFuBusy::InstPrefetch                 0      0.00%    100.00% # attempts to use FU when none available (Count)
system.cpu.statIssuedInstType_0::No_OpClass          276      0.00%      0.00% # Number of instructions issued per FU type, per thread (Count)
system.cpu.statIssuedInstType_0::IntAlu      39381267     65.78%     65.78% # Number of instructions issued per FU type, per thread (Count)
system.cpu.statIssuedInstType_0::IntMult           29      0.00%     65.78% # Number of instructions issued per FU type, per thread (Count)
system.cpu.statIssuedInstType_0::IntDiv            78      0.00%     65.78% # Number of instructions issued per FU type, per thread (Count)
system.cpu.statIssuedInstType_0::FloatAdd           29      0.00%     65.78% # Number of instructions issued per FU type, per thread (Count)
system.cpu.statIssuedInstType_0::FloatCmp            0      0.00%     65.78% # Number of instructions issued per FU type, per thread (Count)
system.cpu.statIssuedInstType_0::FloatCvt            0      0.00%     65.78% # Number of instructions issued per FU type, per thread (Count)
system.cpu.statIssuedInstType_0::FloatMult            0      0.00%     65.78% # Number of instructions issued per FU type, per thread (Count)
system.cpu.statIssuedInstType_0::FloatMultAcc            0      0.00%     65.78% # Number of instructions issued per FU type, per thread (Count)
system.cpu.statIssuedInstType_0::FloatDiv            0      0.00%     65.78% # Number of instructions issued per FU type, per thread (Count)
system.cpu.statIssuedInstType_0::FloatMisc            0      0.00%     65.78% # Number of instructions issued per FU type, per thread (Count)
system.cpu.statIssuedInstType_0::FloatSqrt            0      0.00%     65.78% # Number of instructions issued per FU type, per thread (Count)
system.cpu.statIssuedInstType_0::SimdAdd            0      0.00%     65.78% # Number of instructions issued per FU type, per thread (Count)
system.cpu.statIssuedInstType_0::SimdAddAcc            0      0.00%     65.78% # Number of instructions issued per FU type, per thread (Count)
system.cpu.statIssuedInstType_0::SimdAlu          193      0.00%     65.78% # Number of instructions issued per FU type, per thread (Count)
system.cpu.statIssuedInstType_0::SimdCmp            0      0.00%     65.78% # Number of instructions issued per FU type, per thread (Count)
system.cpu.statIssuedInstType_0::SimdCvt          170      0.00%     65.78% # Number of instructions issued per FU type, per thread (Count)
system.cpu.statIssuedInstType_0::SimdMisc          234      0.00%     65.78% # Number of instructions issued per FU type, per thread (Count)
system.cpu.statIssuedInstType_0::SimdMult            0      0.00%     65.78% # Number of instructions issued per FU type, per thread (Count)
system.cpu.statIssuedInstType_0::SimdMultAcc            0      0.00%     65.78% # Number of instructions issued per FU type, per thread (Count)
system.cpu.statIssuedInstType_0::SimdShift            0      0.00%     65.78% # Number of instructions issued per FU type, per thread (Count)
system.cpu.statIssuedInstType_0::SimdShiftAcc            0      0.00%     65.78% # Number of instructions issued per FU type, per thread (Count)
system.cpu.statIssuedInstType_0::SimdDiv            0      0.00%     65.78% # Number of instructions issued per FU type, per thread (Count)
system.cpu.statIssuedInstType_0::SimdSqrt            0      0.00%     65.78% # Number of instructions issued per FU type, per thread (Count)
system.cpu.statIssuedInstType_0::SimdFloatAdd            0      0.00%     65.78% # Number of instructions issued per FU type, per thread (Count)
system.cpu.statIssuedInstType_0::SimdFloatAlu            0      0.00%     65.78% # Number of instructions issued per FU type, per thread (Count)
system.cpu.statIssuedInstType_0::SimdFloatCmp            0      0.00%     65.78% # Number of instructions issued per FU type, per thread (Count)
system.cpu.statIssuedInstType_0::SimdFloatCvt            2      0.00%     65.78% # Number of instructions issued per FU type, per thread (Count)
system.cpu.statIssuedInstType_0::SimdFloatDiv            0      0.00%     65.78% # Number of instructions issued per FU type, per thread (Count)
system.cpu.statIssuedInstType_0::SimdFloatMisc            0      0.00%     65.78% # Number of instructions issued per FU type, per thread (Count)
system.cpu.statIssuedInstType_0::SimdFloatMult            0      0.00%     65.78% # Number of instructions issued per FU type, per thread (Count)
system.cpu.statIssuedInstType_0::SimdFloatMultAcc            0      0.00%     65.78% # Number of instructions issued per FU type, per thread (Count)
system.cpu.statIssuedInstType_0::SimdFloatSqrt            0      0.00%     65.78% # Number of instructions issued per FU type, per thread (Count)
system.cpu.statIssuedInstType_0::SimdReduceAdd            0      0.00%     65.78% # Number of instructions issued per FU type, per thread (Count)
system.cpu.statIssuedInstType_0::SimdReduceAlu            0      0.00%     65.78% # Number of instructions issued per FU type, per thread (Count)
system.cpu.statIssuedInstType_0::SimdReduceCmp            0      0.00%     65.78% # Number of instructions issued per FU type, per thread (Count)
system.cpu.statIssuedInstType_0::SimdFloatReduceAdd            0      0.00%     65.78% # Number of instructions issued per FU type, per thread (Count)
system.cpu.statIssuedInstType_0::SimdFloatReduceCmp            0      0.00%     65.78% # Number of instructions issued per FU type, per thread (Count)
system.cpu.statIssuedInstType_0::SimdAes            0      0.00%     65.78% # Number of instructions issued per FU type, per thread (Count)
system.cpu.statIssuedInstType_0::SimdAesMix            0      0.00%     65.78% # Number of instructions issued per FU type, per thread (Count)
system.cpu.statIssuedInstType_0::SimdSha1Hash            0      0.00%     65.78% # Number of instructions issued per FU type, per thread (Count)
system.cpu.statIssuedInstType_0::SimdSha1Hash2            0      0.00%     65.78% # Number of instructions issued per FU type, per thread (Count)
system.cpu.statIssuedInstType_0::SimdSha256Hash            0      0.00%     65.78% # Number of instructions issued per FU type, per thread (Count)
system.cpu.statIssuedInstType_0::SimdSha256Hash2            0      0.00%     65.78% # Number of instructions issued per FU type, per thread (Count)
system.cpu.statIssuedInstType_0::SimdShaSigma2            0      0.00%     65.78% # Number of instructions issued per FU type, per thread (Count)
system.cpu.statIssuedInstType_0::SimdShaSigma3            0      0.00%     65.78% # Number of instructions issued per FU type, per thread (Count)
system.cpu.statIssuedInstType_0::SimdPredAlu            0      0.00%     65.78% # Number of instructions issued per FU type, per thread (Count)
system.cpu.statIssuedInstType_0::MemRead     13544860     22.62%     88.41% # Number of instructions issued per FU type, per thread (Count)
system.cpu.statIssuedInstType_0::MemWrite      6939448     11.59%    100.00% # Number of instructions issued per FU type, per thread (Count)
system.cpu.statIssuedInstType_0::FloatMemRead          122      0.00%    100.00% # Number of instructions issued per FU type, per thread (Count)
system.cpu.statIssuedInstType_0::FloatMemWrite          203      0.00%    100.00% # Number of instructions issued per FU type, per thread (Count)
system.cpu.statIssuedInstType_0::IprAccess            0      0.00%    100.00% # Number of instructions issued per FU type, per thread (Count)
system.cpu.statIssuedInstType_0::InstPrefetch            0      0.00%    100.00% # Number of instructions issued per FU type, per thread (Count)
system.cpu.statIssuedInstType_0::total       59866911                       # Number of instructions issued per FU type, per thread (Count)
system.cpu.issueRate                         1.527520                       # Inst issue rate ((Count/Cycle))
system.cpu.fuBusy                              602373                       # FU busy when requested (Count)
system.cpu.fuBusyRate                        0.010062                       # FU busy rate (busy events/executed inst) ((Count/Count))
system.cpu.intInstQueueReads                159511337                       # Number of integer instruction queue reads (Count)
system.cpu.intInstQueueWrites                61476952                       # Number of integer instruction queue writes (Count)
system.cpu.intInstQueueWakeupAccesses        59691001                       # Number of integer instruction queue wakeup accesses (Count)
system.cpu.fpInstQueueReads                      2142                       # Number of floating instruction queue reads (Count)
system.cpu.fpInstQueueWrites                     1607                       # Number of floating instruction queue writes (Count)
system.cpu.fpInstQueueWakeupAccesses              995                       # Number of floating instruction queue wakeup accesses (Count)
system.cpu.vecInstQueueReads                        0                       # Number of vector instruction queue reads (Count)
system.cpu.vecInstQueueWrites                       0                       # Number of vector instruction queue writes (Count)
system.cpu.vecInstQueueWakeupAccesses               0                       # Number of vector instruction queue wakeup accesses (Count)
system.cpu.intAluAccesses                    60467891                       # Number of integer alu accesses (Count)
system.cpu.fpAluAccesses                         1117                       # Number of floating point alu accesses (Count)
system.cpu.vecAluAccesses                           0                       # Number of vector alu accesses (Count)
system.cpu.numInsts                          59863189                       # Number of executed instructions (Count)
system.cpu.numLoadInsts                      13543482                       # Number of load instructions executed (Count)
system.cpu.numSquashedInsts                      3719                       # Number of squashed instructions skipped in execute (Count)
system.cpu.numSwp                                   0                       # Number of swp insts executed (Count)
system.cpu.numNop                                   0                       # Number of nop insts executed (Count)
system.cpu.numRefs                           20482642                       # Number of memory reference insts executed (Count)
system.cpu.numBranches                         319599                       # Number of branches executed (Count)
system.cpu.numStoreInsts                      6939160                       # Number of stores executed (Count)
system.cpu.numRate                           1.527425                       # Inst execution rate ((Count/Cycle))
system.cpu.timesIdled                             333                       # Number of times that the entire CPU went into an idle state and unscheduled itself (Count)
system.cpu.idleCycles                           14991                       # Total number of cycles that the CPU has spent unscheduled due to idling (Cycle)
system.cpu.committedInsts                    50000000                       # Number of Instructions Simulated (Count)
system.cpu.committedOps                      58297584                       # Number of Ops (including micro ops) Simulated (Count)
system.cpu.cpi                               0.783845                       # CPI: Cycles Per Instruction ((Cycle/Count))
system.cpu.totalCpi                          0.783845                       # CPI: Total CPI of All Threads ((Cycle/Count))
system.cpu.ipc                               1.275763                       # IPC: Instructions Per Cycle ((Count/Cycle))
system.cpu.totalIpc                          1.275763                       # IPC: Total IPC of All Threads ((Count/Cycle))
system.cpu.intRegfileReads                   72776792                       # Number of integer regfile reads (Count)
system.cpu.intRegfileWrites                  52282175                       # Number of integer regfile writes (Count)
system.cpu.fpRegfileReads                        1601                       # Number of floating regfile reads (Count)
system.cpu.fpRegfileWrites                        694                       # Number of floating regfile writes (Count)
system.cpu.ccRegfileReads                     1596373                       # number of cc regfile reads (Count)
system.cpu.ccRegfileWrites                   25820361                       # number of cc regfile writes (Count)
system.cpu.miscRegfileReads                  21126033                       # number of misc regfile reads (Count)
system.cpu.MemDepUnit__0.insertedLoads       13546514                       # Number of loads inserted to the mem dependence unit. (Count)
system.cpu.MemDepUnit__0.insertedStores       6943486                       # Number of stores inserted to the mem dependence unit. (Count)
system.cpu.MemDepUnit__0.conflictingLoads      3957600                       # Number of conflicting loads. (Count)
system.cpu.MemDepUnit__0.conflictingStores       310717                       # Number of conflicting stores. (Count)
system.cpu.MemDepUnit__1.insertedLoads              0                       # Number of loads inserted to the mem dependence unit. (Count)
system.cpu.MemDepUnit__1.insertedStores             0                       # Number of stores inserted to the mem dependence unit. (Count)
system.cpu.MemDepUnit__1.conflictingLoads            0                       # Number of conflicting loads. (Count)
system.cpu.MemDepUnit__1.conflictingStores            0                       # Number of conflicting stores. (Count)
system.cpu.MemDepUnit__2.insertedLoads              0                       # Number of loads inserted to the mem dependence unit. (Count)
system.cpu.MemDepUnit__2.insertedStores             0                       # Number of stores inserted to the mem dependence unit. (Count)
system.cpu.MemDepUnit__2.conflictingLoads            0                       # Number of conflicting loads. (Count)
system.cpu.MemDepUnit__2.conflictingStores            0                       # Number of conflicting stores. (Count)
system.cpu.MemDepUnit__3.insertedLoads              0                       # Number of loads inserted to the mem dependence unit. (Count)
system.cpu.MemDepUnit__3.insertedStores             0                       # Number of stores inserted to the mem dependence unit. (Count)
system.cpu.MemDepUnit__3.conflictingLoads            0                       # Number of conflicting loads. (Count)
system.cpu.MemDepUnit__3.conflictingStores            0                       # Number of conflicting stores. (Count)
system.cpu.branchPred.lookups                  328177                       # Number of BP lookups (Count)
system.cpu.branchPred.condPredicted            325884                       # Number of conditional branches predicted (Count)
system.cpu.branchPred.condIncorrect              1020                       # Number of conditional branches incorrect (Count)
system.cpu.branchPred.BTBLookups               322272                       # Number of BTB lookups (Count)
system.cpu.branchPred.BTBHits                  321162                       # Number of BTB hits (Count)
system.cpu.branchPred.BTBHitRatio            0.996556                       # BTB Hit Ratio (Ratio)
system.cpu.branchPred.RASUsed                     758                       # Number of times the RAS was used to get a target. (Count)
system.cpu.branchPred.RASIncorrect                  2                       # Number of incorrect RAS predictions. (Count)
system.cpu.branchPred.indirectLookups             379                       # Number of indirect predictor lookups. (Count)
system.cpu.branchPred.indirectHits                182                       # Number of indirect target hits. (Count)
system.cpu.branchPred.indirectMisses              197                       # Number of indirect misses. (Count)
system.cpu.branchPred.indirectMispredicted           82                       # Number of mispredicted indirect branches. (Count)
system.cpu.commit.commitSquashedInsts         1589379                       # The number of squashed insts skipped by commit (Count)
system.cpu.commit.commitNonSpecStalls              24                       # The number of times commit has been forced to stall to communicate backwards (Count)
system.cpu.commit.branchMispredicts               755                       # The number of times a branch was mispredicted (Count)
system.cpu.commit.numCommittedDist::samples     38977419                       # Number of insts commited each cycle (Count)
system.cpu.commit.numCommittedDist::mean     1.495676                       # Number of insts commited each cycle (Count)
system.cpu.commit.numCommittedDist::stdev     2.817243                       # Number of insts commited each cycle (Count)
system.cpu.commit.numCommittedDist::underflows            0      0.00%      0.00% # Number of insts commited each cycle (Count)
system.cpu.commit.numCommittedDist::0        25030229     64.22%     64.22% # Number of insts commited each cycle (Count)
system.cpu.commit.numCommittedDist::1         6210642     15.93%     80.15% # Number of insts commited each cycle (Count)
system.cpu.commit.numCommittedDist::2         1021131      2.62%     82.77% # Number of insts commited each cycle (Count)
system.cpu.commit.numCommittedDist::3          308875      0.79%     83.56% # Number of insts commited each cycle (Count)
system.cpu.commit.numCommittedDist::4          302225      0.78%     84.34% # Number of insts commited each cycle (Count)
system.cpu.commit.numCommittedDist::5          307528      0.79%     85.13% # Number of insts commited each cycle (Count)
system.cpu.commit.numCommittedDist::6             541      0.00%     85.13% # Number of insts commited each cycle (Count)
system.cpu.commit.numCommittedDist::7            1715      0.00%     85.13% # Number of insts commited each cycle (Count)
system.cpu.commit.numCommittedDist::8         5794533     14.87%    100.00% # Number of insts commited each cycle (Count)
system.cpu.commit.numCommittedDist::overflows            0      0.00%    100.00% # Number of insts commited each cycle (Count)
system.cpu.commit.numCommittedDist::min_value            0                       # Number of insts commited each cycle (Count)
system.cpu.commit.numCommittedDist::max_value            8                       # Number of insts commited each cycle (Count)
system.cpu.commit.numCommittedDist::total     38977419                       # Number of insts commited each cycle (Count)
system.cpu.commit.instsCommitted             50000000                       # Number of instructions committed (Count)
system.cpu.commit.opsCommitted               58297584                       # Number of ops (including micro ops) committed (Count)
system.cpu.commit.memRefs                    19938471                       # Number of memory references committed (Count)
system.cpu.commit.loads                      13189621                       # Number of loads committed (Count)
system.cpu.commit.amos                              0                       # Number of atomic instructions committed (Count)
system.cpu.commit.membars                          16                       # Number of memory barriers committed (Count)
system.cpu.commit.branches                     311038                       # Number of branches committed (Count)
system.cpu.commit.vectorInstructions                0                       # Number of committed Vector instructions. (Count)
system.cpu.commit.floating                        887                       # Number of committed floating point instructions. (Count)
system.cpu.commit.integer                    58296897                       # Number of committed integer instructions. (Count)
system.cpu.commit.functionCalls                   330                       # Number of function calls committed. (Count)
system.cpu.commit.committedInstType_0::No_OpClass           45      0.00%      0.00% # Class of committed instruction (Count)
system.cpu.commit.committedInstType_0::IntAlu     38358423     65.80%     65.80% # Class of committed instruction (Count)
system.cpu.commit.committedInstType_0::IntMult           26      0.00%     65.80% # Class of committed instruction (Count)
system.cpu.commit.committedInstType_0::IntDiv           70      0.00%     65.80% # Class of committed instruction (Count)
system.cpu.commit.committedInstType_0::FloatAdd           21      0.00%     65.80% # Class of committed instruction (Count)
system.cpu.commit.committedInstType_0::FloatCmp            0      0.00%     65.80% # Class of committed instruction (Count)
system.cpu.commit.committedInstType_0::FloatCvt            0      0.00%     65.80% # Class of committed instruction (Count)
system.cpu.commit.committedInstType_0::FloatMult            0      0.00%     65.80% # Class of committed instruction (Count)
system.cpu.commit.committedInstType_0::FloatMultAcc            0      0.00%     65.80% # Class of committed instruction (Count)
system.cpu.commit.committedInstType_0::FloatDiv            0      0.00%     65.80% # Class of committed instruction (Count)
system.cpu.commit.committedInstType_0::FloatMisc            0      0.00%     65.80% # Class of committed instruction (Count)
system.cpu.commit.committedInstType_0::FloatSqrt            0      0.00%     65.80% # Class of committed instruction (Count)
system.cpu.commit.committedInstType_0::SimdAdd            0      0.00%     65.80% # Class of committed instruction (Count)
system.cpu.commit.committedInstType_0::SimdAddAcc            0      0.00%     65.80% # Class of committed instruction (Count)
system.cpu.commit.committedInstType_0::SimdAlu          150      0.00%     65.80% # Class of committed instruction (Count)
system.cpu.commit.committedInstType_0::SimdCmp            0      0.00%     65.80% # Class of committed instruction (Count)
system.cpu.commit.committedInstType_0::SimdCvt          158      0.00%     65.80% # Class of committed instruction (Count)
system.cpu.commit.committedInstType_0::SimdMisc          220      0.00%     65.80% # Class of committed instruction (Count)
system.cpu.commit.committedInstType_0::SimdMult            0      0.00%     65.80% # Class of committed instruction (Count)
system.cpu.commit.committedInstType_0::SimdMultAcc            0      0.00%     65.80% # Class of committed instruction (Count)
system.cpu.commit.committedInstType_0::SimdShift            0      0.00%     65.80% # Class of committed instruction (Count)
system.cpu.commit.committedInstType_0::SimdShiftAcc            0      0.00%     65.80% # Class of committed instruction (Count)
system.cpu.commit.committedInstType_0::SimdDiv            0      0.00%     65.80% # Class of committed instruction (Count)
system.cpu.commit.committedInstType_0::SimdSqrt            0      0.00%     65.80% # Class of committed instruction (Count)
system.cpu.commit.committedInstType_0::SimdFloatAdd            0      0.00%     65.80% # Class of committed instruction (Count)
system.cpu.commit.committedInstType_0::SimdFloatAlu            0      0.00%     65.80% # Class of committed instruction (Count)
system.cpu.commit.committedInstType_0::SimdFloatCmp            0      0.00%     65.80% # Class of committed instruction (Count)
system.cpu.commit.committedInstType_0::SimdFloatCvt            0      0.00%     65.80% # Class of committed instruction (Count)
system.cpu.commit.committedInstType_0::SimdFloatDiv            0      0.00%     65.80% # Class of committed instruction (Count)
system.cpu.commit.committedInstType_0::SimdFloatMisc            0      0.00%     65.80% # Class of committed instruction (Count)
system.cpu.commit.committedInstType_0::SimdFloatMult            0      0.00%     65.80% # Class of committed instruction (Count)
system.cpu.commit.committedInstType_0::SimdFloatMultAcc            0      0.00%     65.80% # Class of committed instruction (Count)
system.cpu.commit.committedInstType_0::SimdFloatSqrt            0      0.00%     65.80% # Class of committed instruction (Count)
system.cpu.commit.committedInstType_0::SimdReduceAdd            0      0.00%     65.80% # Class of committed instruction (Count)
system.cpu.commit.committedInstType_0::SimdReduceAlu            0      0.00%     65.80% # Class of committed instruction (Count)
system.cpu.commit.committedInstType_0::SimdReduceCmp            0      0.00%     65.80% # Class of committed instruction (Count)
system.cpu.commit.committedInstType_0::SimdFloatReduceAdd            0      0.00%     65.80% # Class of committed instruction (Count)
system.cpu.commit.committedInstType_0::SimdFloatReduceCmp            0      0.00%     65.80% # Class of committed instruction (Count)
system.cpu.commit.committedInstType_0::SimdAes            0      0.00%     65.80% # Class of committed instruction (Count)
system.cpu.commit.committedInstType_0::SimdAesMix            0      0.00%     65.80% # Class of committed instruction (Count)
system.cpu.commit.committedInstType_0::SimdSha1Hash            0      0.00%     65.80% # Class of committed instruction (Count)
system.cpu.commit.committedInstType_0::SimdSha1Hash2            0      0.00%     65.80% # Class of committed instruction (Count)
system.cpu.commit.committedInstType_0::SimdSha256Hash            0      0.00%     65.80% # Class of committed instruction (Count)
system.cpu.commit.committedInstType_0::SimdSha256Hash2            0      0.00%     65.80% # Class of committed instruction (Count)
system.cpu.commit.committedInstType_0::SimdShaSigma2            0      0.00%     65.80% # Class of committed instruction (Count)
system.cpu.commit.committedInstType_0::SimdShaSigma3            0      0.00%     65.80% # Class of committed instruction (Count)
system.cpu.commit.committedInstType_0::SimdPredAlu            0      0.00%     65.80% # Class of committed instruction (Count)
system.cpu.commit.committedInstType_0::MemRead     13189522     22.62%     88.42% # Class of committed instruction (Count)
system.cpu.commit.committedInstType_0::MemWrite      6748679     11.58%    100.00% # Class of committed instruction (Count)
system.cpu.commit.committedInstType_0::FloatMemRead           99      0.00%    100.00% # Class of committed instruction (Count)
system.cpu.commit.committedInstType_0::FloatMemWrite          171      0.00%    100.00% # Class of committed instruction (Count)
system.cpu.commit.committedInstType_0::IprAccess            0      0.00%    100.00% # Class of committed instruction (Count)
system.cpu.commit.committedInstType_0::InstPrefetch            0      0.00%    100.00% # Class of committed instruction (Count)
system.cpu.commit.committedInstType_0::total     58297584                       # Class of committed instruction (Count)
system.cpu.commit.commitEligibleSamples       5794533                       # number cycles where commit BW limit reached (Cycle)
system.cpu.dcache.demandHits::cpu.data       12896394                       # number of demand (read+write) hits (Count)
system.cpu.dcache.demandHits::total          12896394                       # number of demand (read+write) hits (Count)
system.cpu.dcache.overallHits::cpu.data      12896394                       # number of overall hits (Count)
system.cpu.dcache.overallHits::total         12896394                       # number of overall hits (Count)
system.cpu.dcache.demandMisses::cpu.data       303288                       # number of demand (read+write) misses (Count)
system.cpu.dcache.demandMisses::total          303288                       # number of demand (read+write) misses (Count)
system.cpu.dcache.overallMisses::cpu.data       303288                       # number of overall misses (Count)
system.cpu.dcache.overallMisses::total         303288                       # number of overall misses (Count)
system.cpu.dcache.demandMissLatency::cpu.data  24323759000                       # number of demand (read+write) miss ticks (Tick)
system.cpu.dcache.demandMissLatency::total  24323759000                       # number of demand (read+write) miss ticks (Tick)
system.cpu.dcache.overallMissLatency::cpu.data  24323759000                       # number of overall miss ticks (Tick)
system.cpu.dcache.overallMissLatency::total  24323759000                       # number of overall miss ticks (Tick)
system.cpu.dcache.demandAccesses::cpu.data     13199682                       # number of demand (read+write) accesses (Count)
system.cpu.dcache.demandAccesses::total      13199682                       # number of demand (read+write) accesses (Count)
system.cpu.dcache.overallAccesses::cpu.data     13199682                       # number of overall (read+write) accesses (Count)
system.cpu.dcache.overallAccesses::total     13199682                       # number of overall (read+write) accesses (Count)
system.cpu.dcache.demandMissRate::cpu.data     0.022977                       # miss rate for demand accesses (Ratio)
system.cpu.dcache.demandMissRate::total      0.022977                       # miss rate for demand accesses (Ratio)
system.cpu.dcache.overallMissRate::cpu.data     0.022977                       # miss rate for overall accesses (Ratio)
system.cpu.dcache.overallMissRate::total     0.022977                       # miss rate for overall accesses (Ratio)
system.cpu.dcache.demandAvgMissLatency::cpu.data 80200.202448                       # average overall miss latency in ticks ((Tick/Count))
system.cpu.dcache.demandAvgMissLatency::total 80200.202448                       # average overall miss latency in ticks ((Tick/Count))
system.cpu.dcache.overallAvgMissLatency::cpu.data 80200.202448                       # average overall miss latency ((Tick/Count))
system.cpu.dcache.overallAvgMissLatency::total 80200.202448                       # average overall miss latency ((Tick/Count))
system.cpu.dcache.blockedCycles::no_mshrs           87                       # number of cycles access was blocked (Cycle)
system.cpu.dcache.blockedCycles::no_targets            0                       # number of cycles access was blocked (Cycle)
system.cpu.dcache.blockedCauses::no_mshrs            6                       # number of times access was blocked (Count)
system.cpu.dcache.blockedCauses::no_targets            0                       # number of times access was blocked (Count)
system.cpu.dcache.avgBlocked::no_mshrs      14.500000                       # average number of cycles each access was blocked ((Cycle/Count))
system.cpu.dcache.avgBlocked::no_targets          nan                       # average number of cycles each access was blocked ((Cycle/Count))
system.cpu.dcache.writebacks::writebacks       765719                       # number of writebacks (Count)
system.cpu.dcache.writebacks::total            765719                       # number of writebacks (Count)
system.cpu.dcache.demandMshrHits::cpu.data        18441                       # number of demand (read+write) MSHR hits (Count)
system.cpu.dcache.demandMshrHits::total         18441                       # number of demand (read+write) MSHR hits (Count)
system.cpu.dcache.overallMshrHits::cpu.data        18441                       # number of overall MSHR hits (Count)
system.cpu.dcache.overallMshrHits::total        18441                       # number of overall MSHR hits (Count)
system.cpu.dcache.demandMshrMisses::cpu.data       284847                       # number of demand (read+write) MSHR misses (Count)
system.cpu.dcache.demandMshrMisses::total       284847                       # number of demand (read+write) MSHR misses (Count)
system.cpu.dcache.overallMshrMisses::cpu.data       284847                       # number of overall MSHR misses (Count)
system.cpu.dcache.overallMshrMisses::cpu.dcache.prefetcher       481976                       # number of overall MSHR misses (Count)
system.cpu.dcache.overallMshrMisses::total       766823                       # number of overall MSHR misses (Count)
system.cpu.dcache.demandMshrMissLatency::cpu.data  22543049000                       # number of demand (read+write) MSHR miss ticks (Tick)
system.cpu.dcache.demandMshrMissLatency::total  22543049000                       # number of demand (read+write) MSHR miss ticks (Tick)
system.cpu.dcache.overallMshrMissLatency::cpu.data  22543049000                       # number of overall MSHR miss ticks (Tick)
system.cpu.dcache.overallMshrMissLatency::cpu.dcache.prefetcher  42717083776                       # number of overall MSHR miss ticks (Tick)
system.cpu.dcache.overallMshrMissLatency::total  65260132776                       # number of overall MSHR miss ticks (Tick)
system.cpu.dcache.demandMshrMissRate::cpu.data     0.021580                       # mshr miss ratio for demand accesses (Ratio)
system.cpu.dcache.demandMshrMissRate::total     0.021580                       # mshr miss ratio for demand accesses (Ratio)
system.cpu.dcache.overallMshrMissRate::cpu.data     0.021580                       # mshr miss ratio for overall accesses (Ratio)
system.cpu.dcache.overallMshrMissRate::cpu.dcache.prefetcher          inf                       # mshr miss ratio for overall accesses (Ratio)
system.cpu.dcache.overallMshrMissRate::total     0.058094                       # mshr miss ratio for overall accesses (Ratio)
system.cpu.dcache.demandAvgMshrMissLatency::cpu.data 79140.903713                       # average overall mshr miss latency ((Tick/Count))
system.cpu.dcache.demandAvgMshrMissLatency::total 79140.903713                       # average overall mshr miss latency ((Tick/Count))
system.cpu.dcache.overallAvgMshrMissLatency::cpu.data 79140.903713                       # average overall mshr miss latency ((Tick/Count))
system.cpu.dcache.overallAvgMshrMissLatency::cpu.dcache.prefetcher 88629.068203                       # average overall mshr miss latency ((Tick/Count))
system.cpu.dcache.overallAvgMshrMissLatency::total 85104.558387                       # average overall mshr miss latency ((Tick/Count))
system.cpu.dcache.replacements                 765798                       # number of replacements (Count)
system.cpu.dcache.HardPFReq.mshrMisses::cpu.dcache.prefetcher       481976                       # number of HardPFReq MSHR misses (Count)
system.cpu.dcache.HardPFReq.mshrMisses::total       481976                       # number of HardPFReq MSHR misses (Count)
system.cpu.dcache.HardPFReq.mshrMissLatency::cpu.dcache.prefetcher  42717083776                       # number of HardPFReq MSHR miss ticks (Tick)
system.cpu.dcache.HardPFReq.mshrMissLatency::total  42717083776                       # number of HardPFReq MSHR miss ticks (Tick)
system.cpu.dcache.HardPFReq.mshrMissRate::cpu.dcache.prefetcher          inf                       # mshr miss rate for HardPFReq accesses (Ratio)
system.cpu.dcache.HardPFReq.mshrMissRate::total          inf                       # mshr miss rate for HardPFReq accesses (Ratio)
system.cpu.dcache.HardPFReq.avgMshrMissLatency::cpu.dcache.prefetcher 88629.068203                       # average HardPFReq mshr miss latency ((Tick/Count))
system.cpu.dcache.HardPFReq.avgMshrMissLatency::total 88629.068203                       # average HardPFReq mshr miss latency ((Tick/Count))
system.cpu.dcache.LockedRMWReadReq.hits::cpu.data            8                       # number of LockedRMWReadReq hits (Count)
system.cpu.dcache.LockedRMWReadReq.hits::total            8                       # number of LockedRMWReadReq hits (Count)
system.cpu.dcache.LockedRMWReadReq.accesses::cpu.data            8                       # number of LockedRMWReadReq accesses(hits+misses) (Count)
system.cpu.dcache.LockedRMWReadReq.accesses::total            8                       # number of LockedRMWReadReq accesses(hits+misses) (Count)
system.cpu.dcache.LockedRMWReadReq.mshrMissLatency::cpu.data       113000                       # number of LockedRMWReadReq MSHR miss ticks (Tick)
system.cpu.dcache.LockedRMWReadReq.mshrMissLatency::total       113000                       # number of LockedRMWReadReq MSHR miss ticks (Tick)
system.cpu.dcache.LockedRMWReadReq.avgMshrMissLatency::cpu.data          inf                       # average LockedRMWReadReq mshr miss latency ((Tick/Count))
system.cpu.dcache.LockedRMWReadReq.avgMshrMissLatency::total          inf                       # average LockedRMWReadReq mshr miss latency ((Tick/Count))
system.cpu.dcache.LockedRMWWriteReq.hits::cpu.data            8                       # number of LockedRMWWriteReq hits (Count)
system.cpu.dcache.LockedRMWWriteReq.hits::total            8                       # number of LockedRMWWriteReq hits (Count)
system.cpu.dcache.LockedRMWWriteReq.accesses::cpu.data            8                       # number of LockedRMWWriteReq accesses(hits+misses) (Count)
system.cpu.dcache.LockedRMWWriteReq.accesses::total            8                       # number of LockedRMWWriteReq accesses(hits+misses) (Count)
system.cpu.dcache.ReadReq.hits::cpu.data      6450669                       # number of ReadReq hits (Count)
system.cpu.dcache.ReadReq.hits::total         6450669                       # number of ReadReq hits (Count)
system.cpu.dcache.ReadReq.misses::cpu.data          185                       # number of ReadReq misses (Count)
system.cpu.dcache.ReadReq.misses::total           185                       # number of ReadReq misses (Count)
system.cpu.dcache.ReadReq.missLatency::cpu.data     15445000                       # number of ReadReq miss ticks (Tick)
system.cpu.dcache.ReadReq.missLatency::total     15445000                       # number of ReadReq miss ticks (Tick)
system.cpu.dcache.ReadReq.accesses::cpu.data      6450854                       # number of ReadReq accesses(hits+misses) (Count)
system.cpu.dcache.ReadReq.accesses::total      6450854                       # number of ReadReq accesses(hits+misses) (Count)
system.cpu.dcache.ReadReq.missRate::cpu.data     0.000029                       # miss rate for ReadReq accesses (Ratio)
system.cpu.dcache.ReadReq.missRate::total     0.000029                       # miss rate for ReadReq accesses (Ratio)
system.cpu.dcache.ReadReq.avgMissLatency::cpu.data 83486.486486                       # average ReadReq miss latency ((Tick/Count))
system.cpu.dcache.ReadReq.avgMissLatency::total 83486.486486                       # average ReadReq miss latency ((Tick/Count))
system.cpu.dcache.ReadReq.mshrHits::cpu.data           81                       # number of ReadReq MSHR hits (Count)
system.cpu.dcache.ReadReq.mshrHits::total           81                       # number of ReadReq MSHR hits (Count)
system.cpu.dcache.ReadReq.mshrMisses::cpu.data          104                       # number of ReadReq MSHR misses (Count)
system.cpu.dcache.ReadReq.mshrMisses::total          104                       # number of ReadReq MSHR misses (Count)
system.cpu.dcache.ReadReq.mshrMissLatency::cpu.data      9797000                       # number of ReadReq MSHR miss ticks (Tick)
system.cpu.dcache.ReadReq.mshrMissLatency::total      9797000                       # number of ReadReq MSHR miss ticks (Tick)
system.cpu.dcache.ReadReq.mshrMissRate::cpu.data     0.000016                       # mshr miss rate for ReadReq accesses (Ratio)
system.cpu.dcache.ReadReq.mshrMissRate::total     0.000016                       # mshr miss rate for ReadReq accesses (Ratio)
system.cpu.dcache.ReadReq.avgMshrMissLatency::cpu.data 94201.923077                       # average ReadReq mshr miss latency ((Tick/Count))
system.cpu.dcache.ReadReq.avgMshrMissLatency::total 94201.923077                       # average ReadReq mshr miss latency ((Tick/Count))
system.cpu.dcache.WriteReq.hits::cpu.data      6445725                       # number of WriteReq hits (Count)
system.cpu.dcache.WriteReq.hits::total        6445725                       # number of WriteReq hits (Count)
system.cpu.dcache.WriteReq.misses::cpu.data       303103                       # number of WriteReq misses (Count)
system.cpu.dcache.WriteReq.misses::total       303103                       # number of WriteReq misses (Count)
system.cpu.dcache.WriteReq.missLatency::cpu.data  24308314000                       # number of WriteReq miss ticks (Tick)
system.cpu.dcache.WriteReq.missLatency::total  24308314000                       # number of WriteReq miss ticks (Tick)
system.cpu.dcache.WriteReq.accesses::cpu.data      6748828                       # number of WriteReq accesses(hits+misses) (Count)
system.cpu.dcache.WriteReq.accesses::total      6748828                       # number of WriteReq accesses(hits+misses) (Count)
system.cpu.dcache.WriteReq.missRate::cpu.data     0.044912                       # miss rate for WriteReq accesses (Ratio)
system.cpu.dcache.WriteReq.missRate::total     0.044912                       # miss rate for WriteReq accesses (Ratio)
system.cpu.dcache.WriteReq.avgMissLatency::cpu.data 80198.196653                       # average WriteReq miss latency ((Tick/Count))
system.cpu.dcache.WriteReq.avgMissLatency::total 80198.196653                       # average WriteReq miss latency ((Tick/Count))
system.cpu.dcache.WriteReq.mshrHits::cpu.data        18360                       # number of WriteReq MSHR hits (Count)
system.cpu.dcache.WriteReq.mshrHits::total        18360                       # number of WriteReq MSHR hits (Count)
system.cpu.dcache.WriteReq.mshrMisses::cpu.data       284743                       # number of WriteReq MSHR misses (Count)
system.cpu.dcache.WriteReq.mshrMisses::total       284743                       # number of WriteReq MSHR misses (Count)
system.cpu.dcache.WriteReq.mshrMissLatency::cpu.data  22533252000                       # number of WriteReq MSHR miss ticks (Tick)
system.cpu.dcache.WriteReq.mshrMissLatency::total  22533252000                       # number of WriteReq MSHR miss ticks (Tick)
system.cpu.dcache.WriteReq.mshrMissRate::cpu.data     0.042191                       # mshr miss rate for WriteReq accesses (Ratio)
system.cpu.dcache.WriteReq.mshrMissRate::total     0.042191                       # mshr miss rate for WriteReq accesses (Ratio)
system.cpu.dcache.WriteReq.avgMshrMissLatency::cpu.data 79135.402802                       # average WriteReq mshr miss latency ((Tick/Count))
system.cpu.dcache.WriteReq.avgMshrMissLatency::total 79135.402802                       # average WriteReq mshr miss latency ((Tick/Count))
system.cpu.dcache.power_state.pwrStateResidencyTicks::UNDEFINED  39192225000                       # Cumulative time (in ticks) in various power states (Tick)
system.cpu.dcache.prefetcher.demandMshrMisses       284847                       # demands not covered by prefetchs (Count)
system.cpu.dcache.prefetcher.pfIssued          598093                       # number of hwpf issued (Count)
system.cpu.dcache.prefetcher.pfUnused               1                       # number of HardPF blocks evicted w/o reference (Count)
system.cpu.dcache.prefetcher.pfUseful          463615                       # number of useful prefetch (Count)
system.cpu.dcache.prefetcher.pfUsefulButMiss            0                       # number of hit on prefetch but cache block is not in an usable state (Count)
system.cpu.dcache.prefetcher.accuracy        0.775155                       # accuracy of the prefetcher (Count)
system.cpu.dcache.prefetcher.coverage        0.619424                       # coverage brought by this prefetcher (Count)
system.cpu.dcache.prefetcher.pfHitInCache       115369                       # number of prefetches hitting in cache (Count)
system.cpu.dcache.prefetcher.pfHitInMSHR          748                       # number of prefetches hitting in a MSHR (Count)
system.cpu.dcache.prefetcher.pfHitInWB              0                       # number of prefetches hit in the Write Buffer (Count)
system.cpu.dcache.prefetcher.pfLate            116117                       # number of late prefetches (hitting in cache, MSHR or WB) (Count)
system.cpu.dcache.prefetcher.pfIdentified       686796                       # number of prefetch candidates identified (Count)
system.cpu.dcache.prefetcher.pfBufferHit        72996                       # number of redundant prefetches already in prefetch queue (Count)
system.cpu.dcache.prefetcher.pfInCache              0                       # number of redundant prefetches already in cache/mshr dropped (Count)
system.cpu.dcache.prefetcher.pfRemovedDemand        11608                       # number of prefetches dropped due to a demand for the same address (Count)
system.cpu.dcache.prefetcher.pfRemovedFull            0                       # number of prefetches dropped due to prefetch queue size (Count)
system.cpu.dcache.prefetcher.pfSpanPage        476516                       # number of prefetches that crossed the page (Count)
system.cpu.dcache.prefetcher.pfUsefulSpanPage            0                       # number of prefetches that is useful and crossed the page (Count)
system.cpu.dcache.prefetcher.power_state.pwrStateResidencyTicks::UNDEFINED  39192225000                       # Cumulative time (in ticks) in various power states (Tick)
system.cpu.dcache.tags.tagsInUse          1022.315609                       # Average ticks per tags in use ((Tick/Count))
system.cpu.dcache.tags.totalRefs             13663232                       # Total number of references to valid blocks. (Count)
system.cpu.dcache.tags.sampledRefs             766822                       # Sample count of references to valid blocks. (Count)
system.cpu.dcache.tags.avgRefs              17.817997                       # Average number of references to valid blocks. ((Count/Count))
system.cpu.dcache.tags.warmupTick              263000                       # The tick when the warmup percentage was hit. (Tick)
system.cpu.dcache.tags.occupancies::cpu.data   378.875941                       # Average occupied blocks per tick, per requestor ((Count/Tick))
system.cpu.dcache.tags.occupancies::cpu.dcache.prefetcher   643.439668                       # Average occupied blocks per tick, per requestor ((Count/Tick))
system.cpu.dcache.tags.avgOccs::cpu.data     0.369996                       # Average percentage of cache occupancy ((Ratio/Tick))
system.cpu.dcache.tags.avgOccs::cpu.dcache.prefetcher     0.628359                       # Average percentage of cache occupancy ((Ratio/Tick))
system.cpu.dcache.tags.avgOccs::total        0.998355                       # Average percentage of cache occupancy ((Ratio/Tick))
system.cpu.dcache.tags.occupanciesTaskId::1022          648                       # Occupied blocks per task id (Count)
system.cpu.dcache.tags.occupanciesTaskId::1024          376                       # Occupied blocks per task id (Count)
system.cpu.dcache.tags.ageTaskId_1022::0          125                       # Occupied blocks per task id, per block age (Count)
system.cpu.dcache.tags.ageTaskId_1022::1          523                       # Occupied blocks per task id, per block age (Count)
system.cpu.dcache.tags.ageTaskId_1024::0           69                       # Occupied blocks per task id, per block age (Count)
system.cpu.dcache.tags.ageTaskId_1024::1          306                       # Occupied blocks per task id, per block age (Count)
system.cpu.dcache.tags.ageTaskId_1024::4            1                       # Occupied blocks per task id, per block age (Count)
system.cpu.dcache.tags.ratioOccsTaskId::1022     0.632812                       # Ratio of occupied blocks and all blocks, per task id (Ratio)
system.cpu.dcache.tags.ratioOccsTaskId::1024     0.367188                       # Ratio of occupied blocks and all blocks, per task id (Ratio)
system.cpu.dcache.tags.tagAccesses           53565614                       # Number of tag accesses (Count)
system.cpu.dcache.tags.dataAccesses          53565614                       # Number of data accesses (Count)
system.cpu.dcache.tags.power_state.pwrStateResidencyTicks::UNDEFINED  39192225000                       # Cumulative time (in ticks) in various power states (Tick)
system.cpu.decode.idleCycles                  2068850                       # Number of cycles decode is idle (Cycle)
system.cpu.decode.blockedCycles              29557765                       # Number of cycles decode is blocked (Cycle)
system.cpu.decode.runCycles                   1709677                       # Number of cycles decode is running (Cycle)
system.cpu.decode.unblockCycles               5827721                       # Number of cycles decode is unblocking (Cycle)
system.cpu.decode.squashCycles                  13234                       # Number of cycles decode is squashing (Cycle)
system.cpu.decode.branchResolved               317401                       # Number of times decode resolved a branch (Count)
system.cpu.decode.branchMispred                   297                       # Number of times decode detected a branch misprediction (Count)
system.cpu.decode.decodedInsts               59967264                       # Number of instructions handled by decode (Count)
system.cpu.decode.squashedInsts                  1273                       # Number of squashed instructions handled by decode (Count)
system.cpu.fetch.icacheStallCycles            3856541                       # Number of cycles fetch is stalled on an Icache miss (Cycle)
system.cpu.fetch.insts                       51878257                       # Number of instructions fetch has processed (Count)
system.cpu.fetch.branches                      328177                       # Number of branches that fetch encountered (Count)
system.cpu.fetch.predictedBranches             322102                       # Number of branches that fetch has predicted taken (Count)
system.cpu.fetch.cycles                      35306960                       # Number of cycles fetch has run and was not squashing or blocked (Cycle)
system.cpu.fetch.squashCycles                   27050                       # Number of cycles fetch has spent squashing (Cycle)
system.cpu.fetch.miscStallCycles                   34                       # Number of cycles fetch has spent waiting on interrupts, or bad addresses, or out of MSHRs (Cycle)
system.cpu.fetch.pendingTrapStallCycles           187                       # Number of stall cycles due to pending traps (Cycle)
system.cpu.fetch.cacheLines                   3830205                       # Number of cache lines fetched (Count)
system.cpu.fetch.icacheSquashes                   605                       # Number of outstanding Icache misses that were squashed (Count)
system.cpu.fetch.nisnDist::samples           39177247                       # Number of instructions fetched each cycle (Total) (Count)
system.cpu.fetch.nisnDist::mean              1.544541                       # Number of instructions fetched each cycle (Total) (Count)
system.cpu.fetch.nisnDist::stdev             2.884726                       # Number of instructions fetched each cycle (Total) (Count)
system.cpu.fetch.nisnDist::underflows               0      0.00%      0.00% # Number of instructions fetched each cycle (Total) (Count)
system.cpu.fetch.nisnDist::0                 28686540     73.22%     73.22% # Number of instructions fetched each cycle (Total) (Count)
system.cpu.fetch.nisnDist::1                  1143129      2.92%     76.14% # Number of instructions fetched each cycle (Total) (Count)
system.cpu.fetch.nisnDist::2                   730457      1.86%     78.00% # Number of instructions fetched each cycle (Total) (Count)
system.cpu.fetch.nisnDist::3                   699414      1.79%     79.79% # Number of instructions fetched each cycle (Total) (Count)
system.cpu.fetch.nisnDist::4                   800191      2.04%     81.83% # Number of instructions fetched each cycle (Total) (Count)
system.cpu.fetch.nisnDist::5                   698940      1.78%     83.62% # Number of instructions fetched each cycle (Total) (Count)
system.cpu.fetch.nisnDist::6                   793910      2.03%     85.64% # Number of instructions fetched each cycle (Total) (Count)
system.cpu.fetch.nisnDist::7                   647668      1.65%     87.30% # Number of instructions fetched each cycle (Total) (Count)
system.cpu.fetch.nisnDist::8                  4976998     12.70%    100.00% # Number of instructions fetched each cycle (Total) (Count)
system.cpu.fetch.nisnDist::overflows                0      0.00%    100.00% # Number of instructions fetched each cycle (Total) (Count)
system.cpu.fetch.nisnDist::min_value                0                       # Number of instructions fetched each cycle (Total) (Count)
system.cpu.fetch.nisnDist::max_value                8                       # Number of instructions fetched each cycle (Total) (Count)
system.cpu.fetch.nisnDist::total             39177247                       # Number of instructions fetched each cycle (Total) (Count)
system.cpu.fetch.branchRate                  0.008374                       # Number of branch fetches per cycle (Ratio)
system.cpu.fetch.rate                        1.323687                       # Number of inst fetches per cycle ((Count/Cycle))
system.cpu.icache.demandHits::cpu.inst        3829396                       # number of demand (read+write) hits (Count)
system.cpu.icache.demandHits::total           3829396                       # number of demand (read+write) hits (Count)
system.cpu.icache.overallHits::cpu.inst       3829396                       # number of overall hits (Count)
system.cpu.icache.overallHits::total          3829396                       # number of overall hits (Count)
system.cpu.icache.demandMisses::cpu.inst          809                       # number of demand (read+write) misses (Count)
system.cpu.icache.demandMisses::total             809                       # number of demand (read+write) misses (Count)
system.cpu.icache.overallMisses::cpu.inst          809                       # number of overall misses (Count)
system.cpu.icache.overallMisses::total            809                       # number of overall misses (Count)
system.cpu.icache.demandMissLatency::cpu.inst     61204000                       # number of demand (read+write) miss ticks (Tick)
system.cpu.icache.demandMissLatency::total     61204000                       # number of demand (read+write) miss ticks (Tick)
system.cpu.icache.overallMissLatency::cpu.inst     61204000                       # number of overall miss ticks (Tick)
system.cpu.icache.overallMissLatency::total     61204000                       # number of overall miss ticks (Tick)
system.cpu.icache.demandAccesses::cpu.inst      3830205                       # number of demand (read+write) accesses (Count)
system.cpu.icache.demandAccesses::total       3830205                       # number of demand (read+write) accesses (Count)
system.cpu.icache.overallAccesses::cpu.inst      3830205                       # number of overall (read+write) accesses (Count)
system.cpu.icache.overallAccesses::total      3830205                       # number of overall (read+write) accesses (Count)
system.cpu.icache.demandMissRate::cpu.inst     0.000211                       # miss rate for demand accesses (Ratio)
system.cpu.icache.demandMissRate::total      0.000211                       # miss rate for demand accesses (Ratio)
system.cpu.icache.overallMissRate::cpu.inst     0.000211                       # miss rate for overall accesses (Ratio)
system.cpu.icache.overallMissRate::total     0.000211                       # miss rate for overall accesses (Ratio)
system.cpu.icache.demandAvgMissLatency::cpu.inst 75653.893696                       # average overall miss latency in ticks ((Tick/Count))
system.cpu.icache.demandAvgMissLatency::total 75653.893696                       # average overall miss latency in ticks ((Tick/Count))
system.cpu.icache.overallAvgMissLatency::cpu.inst 75653.893696                       # average overall miss latency ((Tick/Count))
system.cpu.icache.overallAvgMissLatency::total 75653.893696                       # average overall miss latency ((Tick/Count))
system.cpu.icache.blockedCycles::no_mshrs          382                       # number of cycles access was blocked (Cycle)
system.cpu.icache.blockedCycles::no_targets            0                       # number of cycles access was blocked (Cycle)
system.cpu.icache.blockedCauses::no_mshrs            4                       # number of times access was blocked (Count)
system.cpu.icache.blockedCauses::no_targets            0                       # number of times access was blocked (Count)
system.cpu.icache.avgBlocked::no_mshrs      95.500000                       # average number of cycles each access was blocked ((Cycle/Count))
system.cpu.icache.avgBlocked::no_targets          nan                       # average number of cycles each access was blocked ((Cycle/Count))
system.cpu.icache.demandMshrHits::cpu.inst          195                       # number of demand (read+write) MSHR hits (Count)
system.cpu.icache.demandMshrHits::total           195                       # number of demand (read+write) MSHR hits (Count)
system.cpu.icache.overallMshrHits::cpu.inst          195                       # number of overall MSHR hits (Count)
system.cpu.icache.overallMshrHits::total          195                       # number of overall MSHR hits (Count)
system.cpu.icache.demandMshrMisses::cpu.inst          614                       # number of demand (read+write) MSHR misses (Count)
system.cpu.icache.demandMshrMisses::total          614                       # number of demand (read+write) MSHR misses (Count)
system.cpu.icache.overallMshrMisses::cpu.inst          614                       # number of overall MSHR misses (Count)
system.cpu.icache.overallMshrMisses::total          614                       # number of overall MSHR misses (Count)
system.cpu.icache.demandMshrMissLatency::cpu.inst     49981000                       # number of demand (read+write) MSHR miss ticks (Tick)
system.cpu.icache.demandMshrMissLatency::total     49981000                       # number of demand (read+write) MSHR miss ticks (Tick)
system.cpu.icache.overallMshrMissLatency::cpu.inst     49981000                       # number of overall MSHR miss ticks (Tick)
system.cpu.icache.overallMshrMissLatency::total     49981000                       # number of overall MSHR miss ticks (Tick)
system.cpu.icache.demandMshrMissRate::cpu.inst     0.000160                       # mshr miss ratio for demand accesses (Ratio)
system.cpu.icache.demandMshrMissRate::total     0.000160                       # mshr miss ratio for demand accesses (Ratio)
system.cpu.icache.overallMshrMissRate::cpu.inst     0.000160                       # mshr miss ratio for overall accesses (Ratio)
system.cpu.icache.overallMshrMissRate::total     0.000160                       # mshr miss ratio for overall accesses (Ratio)
system.cpu.icache.demandAvgMshrMissLatency::cpu.inst 81402.280130                       # average overall mshr miss latency ((Tick/Count))
system.cpu.icache.demandAvgMshrMissLatency::total 81402.280130                       # average overall mshr miss latency ((Tick/Count))
system.cpu.icache.overallAvgMshrMissLatency::cpu.inst 81402.280130                       # average overall mshr miss latency ((Tick/Count))
system.cpu.icache.overallAvgMshrMissLatency::total 81402.280130                       # average overall mshr miss latency ((Tick/Count))
system.cpu.icache.replacements                     24                       # number of replacements (Count)
system.cpu.icache.ReadReq.hits::cpu.inst      3829396                       # number of ReadReq hits (Count)
system.cpu.icache.ReadReq.hits::total         3829396                       # number of ReadReq hits (Count)
system.cpu.icache.ReadReq.misses::cpu.inst          809                       # number of ReadReq misses (Count)
system.cpu.icache.ReadReq.misses::total           809                       # number of ReadReq misses (Count)
system.cpu.icache.ReadReq.missLatency::cpu.inst     61204000                       # number of ReadReq miss ticks (Tick)
system.cpu.icache.ReadReq.missLatency::total     61204000                       # number of ReadReq miss ticks (Tick)
system.cpu.icache.ReadReq.accesses::cpu.inst      3830205                       # number of ReadReq accesses(hits+misses) (Count)
system.cpu.icache.ReadReq.accesses::total      3830205                       # number of ReadReq accesses(hits+misses) (Count)
system.cpu.icache.ReadReq.missRate::cpu.inst     0.000211                       # miss rate for ReadReq accesses (Ratio)
system.cpu.icache.ReadReq.missRate::total     0.000211                       # miss rate for ReadReq accesses (Ratio)
system.cpu.icache.ReadReq.avgMissLatency::cpu.inst 75653.893696                       # average ReadReq miss latency ((Tick/Count))
system.cpu.icache.ReadReq.avgMissLatency::total 75653.893696                       # average ReadReq miss latency ((Tick/Count))
system.cpu.icache.ReadReq.mshrHits::cpu.inst          195                       # number of ReadReq MSHR hits (Count)
system.cpu.icache.ReadReq.mshrHits::total          195                       # number of ReadReq MSHR hits (Count)
system.cpu.icache.ReadReq.mshrMisses::cpu.inst          614                       # number of ReadReq MSHR misses (Count)
system.cpu.icache.ReadReq.mshrMisses::total          614                       # number of ReadReq MSHR misses (Count)
system.cpu.icache.ReadReq.mshrMissLatency::cpu.inst     49981000                       # number of ReadReq MSHR miss ticks (Tick)
system.cpu.icache.ReadReq.mshrMissLatency::total     49981000                       # number of ReadReq MSHR miss ticks (Tick)
system.cpu.icache.ReadReq.mshrMissRate::cpu.inst     0.000160                       # mshr miss rate for ReadReq accesses (Ratio)
system.cpu.icache.ReadReq.mshrMissRate::total     0.000160                       # mshr miss rate for ReadReq accesses (Ratio)
system.cpu.icache.ReadReq.avgMshrMissLatency::cpu.inst 81402.280130                       # average ReadReq mshr miss latency ((Tick/Count))
system.cpu.icache.ReadReq.avgMshrMissLatency::total 81402.280130                       # average ReadReq mshr miss latency ((Tick/Count))
system.cpu.icache.power_state.pwrStateResidencyTicks::UNDEFINED  39192225000                       # Cumulative time (in ticks) in various power states (Tick)
system.cpu.icache.prefetcher.demandMshrMisses          614                       # demands not covered by prefetchs (Count)
system.cpu.icache.prefetcher.pfIssued               0                       # number of hwpf issued (Count)
system.cpu.icache.prefetcher.pfUseful               0                       # number of useful prefetch (Count)
system.cpu.icache.prefetcher.pfUsefulButMiss            0                       # number of hit on prefetch but cache block is not in an usable state (Count)
system.cpu.icache.prefetcher.accuracy             nan                       # accuracy of the prefetcher (Count)
system.cpu.icache.prefetcher.coverage               0                       # coverage brought by this prefetcher (Count)
system.cpu.icache.prefetcher.pfHitInCache            0                       # number of prefetches hitting in cache (Count)
system.cpu.icache.prefetcher.pfHitInMSHR            0                       # number of prefetches hitting in a MSHR (Count)
system.cpu.icache.prefetcher.pfHitInWB              0                       # number of prefetches hit in the Write Buffer (Count)
system.cpu.icache.prefetcher.pfLate                 0                       # number of late prefetches (hitting in cache, MSHR or WB) (Count)
system.cpu.icache.prefetcher.pfIdentified            0                       # number of prefetch candidates identified (Count)
system.cpu.icache.prefetcher.pfBufferHit            0                       # number of redundant prefetches already in prefetch queue (Count)
system.cpu.icache.prefetcher.pfInCache              0                       # number of redundant prefetches already in cache/mshr dropped (Count)
system.cpu.icache.prefetcher.pfRemovedDemand            0                       # number of prefetches dropped due to a demand for the same address (Count)
system.cpu.icache.prefetcher.pfRemovedFull            0                       # number of prefetches dropped due to prefetch queue size (Count)
system.cpu.icache.prefetcher.pfSpanPage             0                       # number of prefetches that crossed the page (Count)
system.cpu.icache.prefetcher.pfUsefulSpanPage            0                       # number of prefetches that is useful and crossed the page (Count)
system.cpu.icache.prefetcher.power_state.pwrStateResidencyTicks::UNDEFINED  39192225000                       # Cumulative time (in ticks) in various power states (Tick)
system.cpu.icache.tags.tagsInUse           589.637891                       # Average ticks per tags in use ((Tick/Count))
system.cpu.icache.tags.totalRefs              3830010                       # Total number of references to valid blocks. (Count)
system.cpu.icache.tags.sampledRefs                614                       # Sample count of references to valid blocks. (Count)
system.cpu.icache.tags.avgRefs            6237.801303                       # Average number of references to valid blocks. ((Count/Count))
system.cpu.icache.tags.warmupTick               88000                       # The tick when the warmup percentage was hit. (Tick)
system.cpu.icache.tags.occupancies::cpu.inst   589.637891                       # Average occupied blocks per tick, per requestor ((Count/Tick))
system.cpu.icache.tags.avgOccs::cpu.inst     0.575818                       # Average percentage of cache occupancy ((Ratio/Tick))
system.cpu.icache.tags.avgOccs::total        0.575818                       # Average percentage of cache occupancy ((Ratio/Tick))
system.cpu.icache.tags.occupanciesTaskId::1024          590                       # Occupied blocks per task id (Count)
system.cpu.icache.tags.ageTaskId_1024::4          590                       # Occupied blocks per task id, per block age (Count)
system.cpu.icache.tags.ratioOccsTaskId::1024     0.576172                       # Ratio of occupied blocks and all blocks, per task id (Ratio)
system.cpu.icache.tags.tagAccesses           15321434                       # Number of tag accesses (Count)
system.cpu.icache.tags.dataAccesses          15321434                       # Number of data accesses (Count)
system.cpu.icache.tags.power_state.pwrStateResidencyTicks::UNDEFINED  39192225000                       # Cumulative time (in ticks) in various power states (Tick)
system.cpu.iew.idleCycles                           0                       # Number of cycles IEW is idle (Cycle)
system.cpu.iew.squashCycles                     13234                       # Number of cycles IEW is squashing (Cycle)
system.cpu.iew.blockCycles                     823240                       # Number of cycles IEW is blocking (Cycle)
system.cpu.iew.unblockCycles                   499745                       # Number of cycles IEW is unblocking (Cycle)
system.cpu.iew.dispatchedInsts               59887888                       # Number of instructions dispatched to IQ (Count)
system.cpu.iew.dispSquashedInsts                    8                       # Number of squashed instructions skipped by dispatch (Count)
system.cpu.iew.dispLoadInsts                 13546514                       # Number of dispatched load instructions (Count)
system.cpu.iew.dispStoreInsts                 6943486                       # Number of dispatched store instructions (Count)
system.cpu.iew.dispNonSpecInsts                    56                       # Number of dispatched non-speculative instructions (Count)
system.cpu.iew.iqFullEvents                    220033                       # Number of times the IQ has become full, causing a stall (Count)
system.cpu.iew.lsqFullEvents                   124264                       # Number of times the LSQ has become full, causing a stall (Count)
system.cpu.iew.memOrderViolationEvents            483                       # Number of memory order violations (Count)
[...]
system.mem_ctrl.dram.numWrites::writebacks       762646                       # Number of write requests responded to by this memory (Count)
system.mem_ctrl.dram.numWrites::total          762646                       # Number of write requests responded to by this memory (Count)
system.mem_ctrl.dram.bwRead::cpu.inst          994483                       # Total read bandwidth from this memory ((Byte/Second))
system.mem_ctrl.dram.bwRead::cpu.data       362845845                       # Total read bandwidth from this memory ((Byte/Second))
system.mem_ctrl.dram.bwRead::cpu.dcache.prefetcher    665534452                       # Total read bandwidth from this memory ((Byte/Second))
system.mem_ctrl.dram.bwRead::l2cache.prefetcher    223825618                       # Total read bandwidth from this memory ((Byte/Second))
system.mem_ctrl.dram.bwRead::total         1253200399                       # Total read bandwidth from this memory ((Byte/Second))
system.mem_ctrl.dram.bwInstRead::cpu.inst       994483                       # Instruction read bandwidth from this memory ((Byte/Second))
system.mem_ctrl.dram.bwInstRead::total         994483                       # Instruction read bandwidth from this memory ((Byte/Second))
system.mem_ctrl.dram.bwWrite::writebacks   1245383338                       # Write bandwidth from this memory ((Byte/Second))
system.mem_ctrl.dram.bwWrite::total        1245383338                       # Write bandwidth from this memory ((Byte/Second))
system.mem_ctrl.dram.bwTotal::writebacks   1245383338                       # Total bandwidth to/from this memory ((Byte/Second))
system.mem_ctrl.dram.bwTotal::cpu.inst         994483                       # Total bandwidth to/from this memory ((Byte/Second))
system.mem_ctrl.dram.bwTotal::cpu.data      362845845                       # Total bandwidth to/from this memory ((Byte/Second))
system.mem_ctrl.dram.bwTotal::cpu.dcache.prefetcher    665534452                       # Total bandwidth to/from this memory ((Byte/Second))
system.mem_ctrl.dram.bwTotal::l2cache.prefetcher    223825618                       # Total bandwidth to/from this memory ((Byte/Second))
system.mem_ctrl.dram.bwTotal::total        2498583737                       # Total bandwidth to/from this memory ((Byte/Second))
system.mem_ctrl.dram.readBursts                767433                       # Number of DRAM read bursts (Count)
system.mem_ctrl.dram.writeBursts               762627                       # Number of DRAM write bursts (Count)
system.mem_ctrl.dram.perBankRdBursts::0         48104                       # Per bank write bursts (Count)
system.mem_ctrl.dram.perBankRdBursts::1         48027                       # Per bank write bursts (Count)
system.mem_ctrl.dram.perBankRdBursts::2         48067                       # Per bank write bursts (Count)
system.mem_ctrl.dram.perBankRdBursts::3         47899                       # Per bank write bursts (Count)
system.mem_ctrl.dram.perBankRdBursts::4         47893                       # Per bank write bursts (Count)
system.mem_ctrl.dram.perBankRdBursts::5         47874                       # Per bank write bursts (Count)
system.mem_ctrl.dram.perBankRdBursts::6         47911                       # Per bank write bursts (Count)
system.mem_ctrl.dram.perBankRdBursts::7         47933                       # Per bank write bursts (Count)
system.mem_ctrl.dram.perBankRdBursts::8         47912                       # Per bank write bursts (Count)
system.mem_ctrl.dram.perBankRdBursts::9         47953                       # Per bank write bursts (Count)
system.mem_ctrl.dram.perBankRdBursts::10        47938                       # Per bank write bursts (Count)
system.mem_ctrl.dram.perBankRdBursts::11        47927                       # Per bank write bursts (Count)
system.mem_ctrl.dram.perBankRdBursts::12        48020                       # Per bank write bursts (Count)
system.mem_ctrl.dram.perBankRdBursts::13        47987                       # Per bank write bursts (Count)
system.mem_ctrl.dram.perBankRdBursts::14        47958                       # Per bank write bursts (Count)
system.mem_ctrl.dram.perBankRdBursts::15        48030                       # Per bank write bursts (Count)
system.mem_ctrl.dram.perBankWrBursts::0         47744                       # Per bank write bursts (Count)
system.mem_ctrl.dram.perBankWrBursts::1         47744                       # Per bank write bursts (Count)
system.mem_ctrl.dram.perBankWrBursts::2         47727                       # Per bank write bursts (Count)
system.mem_ctrl.dram.perBankWrBursts::3         47616                       # Per bank write bursts (Count)
system.mem_ctrl.dram.perBankWrBursts::4         47616                       # Per bank write bursts (Count)
system.mem_ctrl.dram.perBankWrBursts::5         47616                       # Per bank write bursts (Count)
system.mem_ctrl.dram.perBankWrBursts::6         47616                       # Per bank write bursts (Count)
system.mem_ctrl.dram.perBankWrBursts::7         47657                       # Per bank write bursts (Count)
system.mem_ctrl.dram.perBankWrBursts::8         47642                       # Per bank write bursts (Count)
system.mem_ctrl.dram.perBankWrBursts::9         47629                       # Per bank write bursts (Count)
system.mem_ctrl.dram.perBankWrBursts::10        47645                       # Per bank write bursts (Count)
system.mem_ctrl.dram.perBankWrBursts::11        47626                       # Per bank write bursts (Count)
system.mem_ctrl.dram.perBankWrBursts::12        47643                       # Per bank write bursts (Count)
system.mem_ctrl.dram.perBankWrBursts::13        47681                       # Per bank write bursts (Count)
system.mem_ctrl.dram.perBankWrBursts::14        47681                       # Per bank write bursts (Count)
system.mem_ctrl.dram.perBankWrBursts::15        47744                       # Per bank write bursts (Count)
system.mem_ctrl.dram.totQLat              21520691793                       # Total ticks spent queuing (Tick)
system.mem_ctrl.dram.totBusLat             3837165000                       # Total ticks spent in databus transfers (Tick)
system.mem_ctrl.dram.totMemAccLat         35910060543                       # Total ticks spent from burst creation until serviced by the DRAM (Tick)
system.mem_ctrl.dram.avgQLat                 28042.44                       # Average queueing delay per DRAM burst ((Tick/Count))
system.mem_ctrl.dram.avgBusLat                5000.00                       # Average bus latency per DRAM burst ((Tick/Count))
system.mem_ctrl.dram.avgMemAccLat            46792.44                       # Average memory access latency per DRAM burst ((Tick/Count))
system.mem_ctrl.dram.readRowHits               699255                       # Number of row buffer hits during reads (Count)
system.mem_ctrl.dram.writeRowHits              706227                       # Number of row buffer hits during writes (Count)
system.mem_ctrl.dram.readRowHitRate             91.12                       # Row buffer hit rate for reads (Ratio)
system.mem_ctrl.dram.writeRowHitRate            92.60                       # Row buffer hit rate for writes (Ratio)
system.mem_ctrl.dram.bytesPerActivate::samples       124576                       # Bytes accessed per row activation (Byte)
system.mem_ctrl.dram.bytesPerActivate::mean   786.054970                       # Bytes accessed per row activation (Byte)
system.mem_ctrl.dram.bytesPerActivate::gmean   621.274542                       # Bytes accessed per row activation (Byte)
system.mem_ctrl.dram.bytesPerActivate::stdev   352.668255                       # Bytes accessed per row activation (Byte)
system.mem_ctrl.dram.bytesPerActivate::0-127         7996      6.42%      6.42% # Bytes accessed per row activation (Byte)
system.mem_ctrl.dram.bytesPerActivate::128-255        13048     10.47%     16.89% # Bytes accessed per row activation (Byte)
system.mem_ctrl.dram.bytesPerActivate::256-383         4849      3.89%     20.78% # Bytes accessed per row activation (Byte)
system.mem_ctrl.dram.bytesPerActivate::384-511         3027      2.43%     23.21% # Bytes accessed per row activation (Byte)
system.mem_ctrl.dram.bytesPerActivate::512-639         2636      2.12%     25.33% # Bytes accessed per row activation (Byte)
system.mem_ctrl.dram.bytesPerActivate::640-767         3405      2.73%     28.06% # Bytes accessed per row activation (Byte)
system.mem_ctrl.dram.bytesPerActivate::768-895         7199      5.78%     33.84% # Bytes accessed per row activation (Byte)
system.mem_ctrl.dram.bytesPerActivate::896-1023        13777     11.06%     44.90% # Bytes accessed per row activation (Byte)
system.mem_ctrl.dram.bytesPerActivate::1024-1151        68639     55.10%    100.00% # Bytes accessed per row activation (Byte)
system.mem_ctrl.dram.bytesPerActivate::total       124576                       # Bytes accessed per row activation (Byte)
system.mem_ctrl.dram.bytesRead               49115712                       # Total bytes read (Byte)
system.mem_ctrl.dram.bytesWritten            48808128                       # Total bytes written (Byte)
system.mem_ctrl.dram.avgRdBW              1253.200399                       # Average DRAM read bandwidth in MiBytes/s ((Byte/Second))
system.mem_ctrl.dram.avgWrBW              1245.352312                       # Average DRAM write bandwidth in MiBytes/s ((Byte/Second))
system.mem_ctrl.dram.peakBW                  12800.00                       # Theoretical peak bandwidth in MiByte/s ((Byte/Second))
system.mem_ctrl.dram.busUtil                    19.52                       # Data bus utilization in percentage (Ratio)
system.mem_ctrl.dram.busUtilRead                 9.79                       # Data bus utilization in percentage for reads (Ratio)
system.mem_ctrl.dram.busUtilWrite                9.73                       # Data bus utilization in percentage for writes (Ratio)
system.mem_ctrl.dram.pageHitRate                91.86                       # Row buffer hit rate, read and write combined (Ratio)
system.mem_ctrl.dram.power_state.pwrStateResidencyTicks::UNDEFINED  39192225000                       # Cumulative time (in ticks) in various power states (Tick)
system.mem_ctrl.dram.rank0.actEnergy        445428900                       # Energy for activate commands per rank (pJ) (Joule)
system.mem_ctrl.dram.rank0.preEnergy        236743485                       # Energy for precharge commands per rank (pJ) (Joule)
system.mem_ctrl.dram.rank0.readEnergy      2739675120                       # Energy for read commands per rank (pJ) (Joule)
system.mem_ctrl.dram.rank0.writeEnergy     1990573920                       # Energy for write commands per rank (pJ) (Joule)
system.mem_ctrl.dram.rank0.refreshEnergy 3093483120.000000                       # Energy for refresh commands per rank (pJ) (Joule)
system.mem_ctrl.dram.rank0.actBackEnergy   9632817030                       # Energy for active background per rank (pJ) (Joule)
system.mem_ctrl.dram.rank0.preBackEnergy   6937968480                       # Energy for precharge background per rank (pJ) (Joule)
system.mem_ctrl.dram.rank0.actPowerDownEnergy            0                       # Energy for active power-down per rank (pJ) (Joule)
system.mem_ctrl.dram.rank0.prePowerDownEnergy            0                       # Energy for precharge power-down per rank (pJ) (Joule)
system.mem_ctrl.dram.rank0.selfRefreshEnergy            0                       # Energy for self refresh per rank (pJ) (Joule)
system.mem_ctrl.dram.rank0.totalEnergy    25076690055                       # Total energy per rank (pJ) (Joule)
system.mem_ctrl.dram.rank0.averagePower    639.838388                       # Core power per rank (mW) (Watt)
system.mem_ctrl.dram.rank0.totalIdleTime            0                       # Total Idle time Per DRAM Rank (Tick)
system.mem_ctrl.dram.rank0.pwrStateTime::IDLE  17602374488                       # Time in different power states (Tick)
system.mem_ctrl.dram.rank0.pwrStateTime::REF   1308580000                       # Time in different power states (Tick)
system.mem_ctrl.dram.rank0.pwrStateTime::SREF            0                       # Time in different power states (Tick)
system.mem_ctrl.dram.rank0.pwrStateTime::PRE_PDN            0                       # Time in different power states (Tick)
system.mem_ctrl.dram.rank0.pwrStateTime::ACT  20281270512                       # Time in different power states (Tick)
system.mem_ctrl.dram.rank0.pwrStateTime::ACT_PDN            0                       # Time in different power states (Tick)
system.mem_ctrl.dram.rank1.actEnergy        444058020                       # Energy for activate commands per rank (pJ) (Joule)
system.mem_ctrl.dram.rank1.preEnergy        236022435                       # Energy for precharge commands per rank (pJ) (Joule)
system.mem_ctrl.dram.rank1.readEnergy      2739796500                       # Energy for read commands per rank (pJ) (Joule)
system.mem_ctrl.dram.rank1.writeEnergy     1990339020                       # Energy for write commands per rank (pJ) (Joule)
system.mem_ctrl.dram.rank1.refreshEnergy 3093483120.000000                       # Energy for refresh commands per rank (pJ) (Joule)
system.mem_ctrl.dram.rank1.actBackEnergy   9609630000                       # Energy for active background per rank (pJ) (Joule)
system.mem_ctrl.dram.rank1.preBackEnergy   6957494400                       # Energy for precharge background per rank (pJ) (Joule)
system.mem_ctrl.dram.rank1.actPowerDownEnergy            0                       # Energy for active power-down per rank (pJ) (Joule)
system.mem_ctrl.dram.rank1.prePowerDownEnergy            0                       # Energy for precharge power-down per rank (pJ) (Joule)
system.mem_ctrl.dram.rank1.selfRefreshEnergy            0                       # Energy for self refresh per rank (pJ) (Joule)
system.mem_ctrl.dram.rank1.totalEnergy    25070823495                       # Total energy per rank (pJ) (Joule)
system.mem_ctrl.dram.rank1.averagePower    639.688701                       # Core power per rank (mW) (Watt)
system.mem_ctrl.dram.rank1.totalIdleTime            0                       # Total Idle time Per DRAM Rank (Tick)
system.mem_ctrl.dram.rank1.pwrStateTime::IDLE  17654520389                       # Time in different power states (Tick)
system.mem_ctrl.dram.rank1.pwrStateTime::REF   1308580000                       # Time in different power states (Tick)
system.mem_ctrl.dram.rank1.pwrStateTime::SREF            0                       # Time in different power states (Tick)
system.mem_ctrl.dram.rank1.pwrStateTime::PRE_PDN            0                       # Time in different power states (Tick)
system.mem_ctrl.dram.rank1.pwrStateTime::ACT  20229124611                       # Time in different power states (Tick)
system.mem_ctrl.dram.rank1.pwrStateTime::ACT_PDN            0                       # Time in different power states (Tick)
system.mem_ctrl.power_state.pwrStateResidencyTicks::UNDEFINED  39192225000                       # Cumulative time (in ticks) in various power states (Tick)
system.membus.transDist::ReadResp              545337                       # Transaction distribution (Count)
system.membus.transDist::WritebackDirty        762646                       # Transaction distribution (Count)
system.membus.transDist::CleanEvict               100                       # Transaction distribution (Count)
system.membus.transDist::ReadExReq             222096                       # Transaction distribution (Count)
system.membus.transDist::ReadExResp            222096                       # Transaction distribution (Count)
system.membus.transDist::ReadSharedReq         545337                       # Transaction distribution (Count)
system.membus.pktCount_system.l2cache.mem_side_port::system.mem_ctrl.port      2297612                       # Packet count per connected requestor and responder (Count)
system.membus.pktCount_system.l2cache.mem_side_port::total      2297612                       # Packet count per connected requestor and responder (Count)
system.membus.pktCount::total                 2297612                       # Packet count per connected requestor and responder (Count)
system.membus.pktSize_system.l2cache.mem_side_port::system.mem_ctrl.port     97925056                       # Cumulative packet size per connected requestor and responder (Byte)
system.membus.pktSize_system.l2cache.mem_side_port::total     97925056                       # Cumulative packet size per connected requestor and responder (Byte)
system.membus.pktSize::total                 97925056                       # Cumulative packet size per connected requestor and responder (Byte)
system.membus.snoops                                0                       # Total snoops (Count)
system.membus.snoopTraffic                          0                       # Total snoop traffic (Byte)
system.membus.snoopFanout::samples             767433                       # Request fanout histogram (Count)
system.membus.snoopFanout::mean                     0                       # Request fanout histogram (Count)
system.membus.snoopFanout::stdev                    0                       # Request fanout histogram (Count)
system.membus.snoopFanout::underflows               0      0.00%      0.00% # Request fanout histogram (Count)
system.membus.snoopFanout::0                   767433    100.00%    100.00% # Request fanout histogram (Count)
system.membus.snoopFanout::1                        0      0.00%    100.00% # Request fanout histogram (Count)
system.membus.snoopFanout::overflows                0      0.00%    100.00% # Request fanout histogram (Count)
system.membus.snoopFanout::min_value                0                       # Request fanout histogram (Count)
system.membus.snoopFanout::max_value                0                       # Request fanout histogram (Count)
system.membus.snoopFanout::total               767433                       # Request fanout histogram (Count)
system.membus.power_state.pwrStateResidencyTicks::UNDEFINED  39192225000                       # Cumulative time (in ticks) in various power states (Tick)
system.membus.reqLayer2.occupancy          4582650092                       # Layer occupancy (ticks) (Tick)
system.membus.reqLayer2.utilization               0.1                       # Layer utilization (Ratio)
system.membus.respLayer0.occupancy         3972616122                       # Layer occupancy (ticks) (Tick)
system.membus.respLayer0.utilization              0.1                       # Layer utilization (Ratio)
system.membus.snoop_filter.totRequests        1530179                       # Total number of requests made to the snoop filter. (Count)
system.membus.snoop_filter.hitSingleRequests       762746                       # Number of requests hitting in the snoop filter with a single holder of the requested data. (Count)
system.membus.snoop_filter.hitMultiRequests            0                       # Number of requests hitting in the snoop filter with multiple (>1) holders of the requested data. (Count)
system.membus.snoop_filter.totSnoops                0                       # Total number of snoops made to the snoop filter. (Count)
system.membus.snoop_filter.hitSingleSnoops            0                       # Number of snoops hitting in the snoop filter with a single holder of the requested data. (Count)
system.membus.snoop_filter.hitMultiSnoops            0                       # Number of snoops hitting in the snoop filter with multiple (>1) holders of the requested data. (Count)
system.workload.inst.arm                            0                       # number of arm instructions executed (Count)
system.workload.inst.quiesce                        0                       # number of quiesce instructions executed (Count)

---------- End Simulation Statistics   ----------
