
---------- Begin Simulation Statistics ----------
simSeconds                                   0.395053                       # Number of seconds simulated (Second)
simTicks                                 395053313000                       # Number of ticks simulated (Tick)
finalTick                                395053313000                       # Number of ticks from beginning of simulation (restored from checkpoints and never reset) (Tick)
simFreq                                  1000000000000                       # The number of ticks per simulated second ((Tick/Second))
hostSeconds                                    923.16                       # Real time elapsed on the host (Second)
hostTickRate                                427937344                       # The number of ticks simulated per host second (ticks/s) ((Tick/Second))
hostMemory                                    8529804                       # Number of bytes of host memory used (Byte)
simInsts                                     50000000                       # Number of instructions simulated (Count)
simOps                                       95981340                       # Number of ops (including micro ops) simulated (Count)
hostInstRate                                    54162                       # Simulator instruction rate (inst/s) ((Count/Second))
hostOpRate                                     103971                       # Simulator op (including micro ops) rate (op/s) ((Count/Second))
system.clk_domain.clock                          1000                       # Clock period in ticks (Tick)
system.clk_domain.voltage_domain.voltage            1                       # Voltage in Volts (Volt)
system.cpu.numCycles                        395053319                       # Number of cpu cycles simulated (Cycle)
system.cpu.numWorkItemsStarted                      0                       # Number of work items this cpu started (Count)
system.cpu.numWorkItemsCompleted                    0                       # Number of work items this cpu completed (Count)
system.cpu.instsAdded                       100808981                       # Number of instructions added to the IQ (excludes non-spec) (Count)
system.cpu.nonSpecInstsAdded                      678                       # Number of non-speculative instructions added to the IQ (Count)
system.cpu.instsIssued                      100738476                       # Number of instructions issued (Count)
system.cpu.squashedInstsIssued                   1343                       # Number of squashed instructions issued (Count)
system.cpu.squashedInstsExamined              4828311                       # Number of squashed instructions iterated over during squash; mainly for profiling (Count)
system.cpu.squashedOperandsExamined          11586361                       # Number of squashed operands that are examined and possibly removed from graph (Count)
system.cpu.squashedNonSpecRemoved                 630                       # Number of squashed non-spec instructions that were removed (Count)
system.cpu.numIssuedDist::samples           395029729                       # Number of insts issued each cycle (Count)
system.cpu.numIssuedDist::mean               0.255015                       # Number of insts issued each cycle (Count)
system.cpu.numIssuedDist::stdev              0.741566                       # Number of insts issued each cycle (Count)
system.cpu.numIssuedDist::underflows                0      0.00%      0.00% # Number of insts issued each cycle (Count)
system.cpu.numIssuedDist::0                 328777590     83.23%     83.23% # Number of insts issued each cycle (Count)
system.cpu.numIssuedDist::1                  51015170     12.91%     96.14% # Number of insts issued each cycle (Count)
system.cpu.numIssuedDist::2                   5392192      1.37%     97.51% # Number of insts issued each cycle (Count)
system.cpu.numIssuedDist::3                   4289857      1.09%     98.59% # Number of insts issued each cycle (Count)
system.cpu.numIssuedDist::4                   4130609      1.05%     99.64% # Number of insts issued each cycle (Count)
system.cpu.numIssuedDist::5                    281071      0.07%     99.71% # Number of insts issued each cycle (Count)
system.cpu.numIssuedDist::6                    256816      0.07%     99.78% # Number of insts issued each cycle (Count)
system.cpu.numIssuedDist::7                    490728      0.12%     99.90% # Number of insts issued each cycle (Count)
system.cpu.numIssuedDist::8                    395696      0.10%    100.00% # Number of insts issued each cycle (Count)
system.cpu.numIssuedDist::overflows                 0      0.00%    100.00% # Number of insts issued each cycle (Count)
system.cpu.numIssuedDist::min_value                 0                       # Number of insts issued each cycle (Count)
system.cpu.numIssuedDist::max_value                 8                       # Number of insts issued each cycle (Count)
system.cpu.numIssuedDist::total             395029729                       # Number of insts issued each cycle (Count)
system.cpu.statFuBusy::No_OpClass                   0      0.00%      0.00% # attempts to use FU when none available (Count)
system.cpu.statFuBusy::IntAlu                   77144      9.53%      9.53% # attempts to use FU when none available (Count)
system.cpu.statFuBusy::IntMult                      0      0.00%      9.53% # attempts to use FU when none available (Count)
system.cpu.statFuBusy::IntDiv                       0      0.00%      9.53% # attempts to use FU when none available (Count)
system.cpu.statFuBusy::FloatAdd                     0      0.00%      9.53% # attempts to use FU when none available (Count)
system.cpu.statFuBusy::FloatCmp                     0      0.00%      9.53% # attempts to use FU when none available (Count)
system.cpu.statFuBusy::FloatCvt                     0      0.00%      9.53% # attempts to use FU when none available (Count)
system.cpu.statFuBusy::FloatMult                    0      0.00%      9.53% # attempts to use FU when none available (Count)
system.cpu.statFuBusy::FloatMultAcc                 0      0.00%      9.53% # attempts to use FU when none available (Count)
system.cpu.statFuBusy::FloatDiv                     0      0.00%      9.53% # attempts to use FU when none available (Count)
system.cpu.statFuBusy::FloatMisc                    0      0.00%      9.53% # attempts to use FU when none available (Count)
system.cpu.statFuBusy::FloatSqrt                    0      0.00%      9.53% # attempts to use FU when none available (Count)
system.cpu.statFuBusy::SimdAdd                      0      0.00%      9.53% # attempts to use FU when none available (Count)
system.cpu.statFuBusy::SimdAddAcc                   0      0.00%      9.53% # attempts to use FU when none available (Count)
system.cpu.statFuBusy::SimdAlu                     18      0.00%      9.53% # attempts to use FU when none available (Count)
system.cpu.statFuBusy::SimdCmp                      0      0.00%      9.53% # attempts to use FU when none available (Count)
system.cpu.statFuBusy::SimdCvt                      3      0.00%      9.53% # attempts to use FU when none available (Count)
system.cpu.statFuBusy::SimdMisc                     0      0.00%      9.53% # attempts to use FU when none available (Count)
system.cpu.statFuBusy::SimdMult                     0      0.00%      9.53% # attempts to use FU when none available (Count)
system.cpu.statFuBusy::SimdMultAcc                  0      0.00%      9.53% # attempts to use FU when none available (Count)
system.cpu.statFuBusy::SimdShift                    0      0.00%      9.53% # attempts to use FU when none available (Count)
system.cpu.statFuBusy::SimdShiftAcc                 0      0.00%      9.53% # attempts to use FU when none available (Count)
system.cpu.statFuBusy::SimdDiv                      0      0.00%      9.53% # attempts to use FU when none available (Count)
system.cpu.statFuBusy::SimdSqrt                     0      0.00%      9.53% # attempts to use FU when none available (Count)
system.cpu.statFuBusy::SimdFloatAdd                 0      0.00%      9.53% # attempts to use FU when none available (Count)
system.cpu.statFuBusy::SimdFloatAlu                 0      0.00%      9.53% # attempts to use FU when none available (Count)
system.cpu.statFuBusy::SimdFloatCmp                 0      0.00%      9.53% # attempts to use FU when none available (Count)
system.cpu.statFuBusy::SimdFloatCvt                 0      0.00%      9.53% # attempts to use FU when none available (Count)
system.cpu.statFuBusy::SimdFloatDiv                 0      0.00%      9.53% # attempts to use FU when none available (Count)
system.cpu.statFuBusy::SimdFloatMisc                0      0.00%      9.53% # attempts to use FU when none available (Count)
system.cpu.statFuBusy::SimdFloatMult                0      0.00%      9.53% # attempts to use FU when none available (Count)
system.cpu.statFuBusy::SimdFloatMultAcc             0      0.00%      9.53% # attempts to use FU when none available (Count)
system.cpu.statFuBusy::SimdFloatSqrt                0      0.00%      9.53% # attempts to use FU when none available (Count)
system.cpu.statFuBusy::SimdReduceAdd                0      0.00%      9.53% # attempts to use FU when none available (Count)
system.cpu.statFuBusy::SimdReduceAlu                0      0.00%      9.53% # attempts to use FU when none available (Count)
system.cpu.statFuBusy::SimdReduceCmp                0      0.00%      9.53% # attempts to use FU when none available (Count)
system.cpu.statFuBusy::SimdFloatReduceAdd            0      0.00%      9.53% # attempts to use FU when none available (Count)
system.cpu.statFuBusy::SimdFloatReduceCmp            0      0.00%      9.53% # attempts to use FU when none available (Count)
system.cpu.statFuBusy::SimdAes                      0      0.00%      9.53% # attempts to use FU when none available (Count)
system.cpu.statFuBusy::SimdAesMix                   0      0.00%      9.53% # attempts to use FU when none available (Count)
system.cpu.statFuBusy::SimdSha1Hash                 0      0.00%      9.53% # attempts to use FU when none available (Count)
system.cpu.statFuBusy::SimdSha1Hash2                0      0.00%      9.53% # attempts to use FU when none available (Count)
system.cpu.statFuBusy::SimdSha256Hash               0      0.00%      9.53% # attempts to use FU when none available (Count)
system.cpu.statFuBusy::SimdSha256Hash2              0      0.00%      9.53% # attempts to use FU when none available (Count)
system.cpu.statFuBusy::SimdShaSigma2                0      0.00%      9.53% # attempts to use FU when none available (Count)
system.cpu.statFuBusy::SimdShaSigma3                0      0.00%      9.53% # attempts to use FU when none available (Count)
system.cpu.statFuBusy::SimdPredAlu                  0      0.00%      9.53% # attempts to use FU when none available (Count)
system.cpu.statFuBusy::MemRead                  30187      3.73%     13.26% # attempts to use FU when none available (Count)
system.cpu.statFuBusy::MemWrite                   247      0.03%     13.29% # attempts to use FU when none available (Count)
system.cpu.statFuBusy::FloatMemRead                13      0.00%     13.29% # attempts to use FU when none available (Count)
system.cpu.statFuBusy::FloatMemWrite           701813     86.71%    100.00% # attempts to use FU when none available (Count)
system.cpu.statFuBusy::IprAccess                    0      0.00%    100.00% # attempts to use FU when none available (Count)
system.cpu.statFuBusy::InstPrefetch                 0      0.00%    100.00% # attempts to use FU when none available (Count)
system.cpu.statIssuedInstType_0::No_OpClass          910      0.00%      0.00% # Number of instructions issued per FU type, per thread (Count)
system.cpu.statIssuedInstType_0::IntAlu      44521014     44.19%     44.20% # Number of instructions issued per FU type, per thread (Count)
system.cpu.statIssuedInstType_0::IntMult          735      0.00%     44.20% # Number of instructions issued per FU type, per thread (Count)
system.cpu.statIssuedInstType_0::IntDiv            26      0.00%     44.20% # Number of instructions issued per FU type, per thread (Count)
system.cpu.statIssuedInstType_0::FloatAdd          322      0.00%     44.20% # Number of instructions issued per FU type, per thread (Count)
system.cpu.statIssuedInstType_0::FloatCmp            0      0.00%     44.20% # Number of instructions issued per FU type, per thread (Count)
system.cpu.statIssuedInstType_0::FloatCvt            0      0.00%     44.20% # Number of instructions issued per FU type, per thread (Count)
system.cpu.statIssuedInstType_0::FloatMult            0      0.00%     44.20% # Number of instructions issued per FU type, per thread (Count)
system.cpu.statIssuedInstType_0::FloatMultAcc            0      0.00%     44.20% # Number of instructions issued per FU type, per thread (Count)
system.cpu.statIssuedInstType_0::FloatDiv            0      0.00%     44.20% # Number of instructions issued per FU type, per thread (Count)
system.cpu.statIssuedInstType_0::FloatMisc            0      0.00%     44.20% # Number of instructions issued per FU type, per thread (Count)
system.cpu.statIssuedInstType_0::FloatSqrt            0      0.00%     44.20% # Number of instructions issued per FU type, per thread (Count)
system.cpu.statIssuedInstType_0::SimdAdd            0      0.00%     44.20% # Number of instructions issued per FU type, per thread (Count)
system.cpu.statIssuedInstType_0::SimdAddAcc            0      0.00%     44.20% # Number of instructions issued per FU type, per thread (Count)
system.cpu.statIssuedInstType_0::SimdAlu          998      0.00%     44.20% # Number of instructions issued per FU type, per thread (Count)
system.cpu.statIssuedInstType_0::SimdCmp           12      0.00%     44.20% # Number of instructions issued per FU type, per thread (Count)
system.cpu.statIssuedInstType_0::SimdCvt          823      0.00%     44.20% # Number of instructions issued per FU type, per thread (Count)
system.cpu.statIssuedInstType_0::SimdMisc         2132      0.00%     44.20% # Number of instructions issued per FU type, per thread (Count)
system.cpu.statIssuedInstType_0::SimdMult            0      0.00%     44.20% # Number of instructions issued per FU type, per thread (Count)
system.cpu.statIssuedInstType_0::SimdMultAcc            0      0.00%     44.20% # Number of instructions issued per FU type, per thread (Count)
system.cpu.statIssuedInstType_0::SimdShift            0      0.00%     44.20% # Number of instructions issued per FU type, per thread (Count)
system.cpu.statIssuedInstType_0::SimdShiftAcc            0      0.00%     44.20% # Number of instructions issued per FU type, per thread (Count)
system.cpu.statIssuedInstType_0::SimdDiv            0      0.00%     44.20% # Number of instructions issued per FU type, per thread (Count)
system.cpu.statIssuedInstType_0::SimdSqrt            0      0.00%     44.20% # Number of instructions issued per FU type, per thread (Count)
system.cpu.statIssuedInstType_0::SimdFloatAdd            0      0.00%     44.20% # Number of instructions issued per FU type, per thread (Count)
system.cpu.statIssuedInstType_0::SimdFloatAlu            0      0.00%     44.20% # Number of instructions issued per FU type, per thread (Count)
system.cpu.statIssuedInstType_0::SimdFloatCmp            0      0.00%     44.20% # Number of instructions issued per FU type, per thread (Count)
system.cpu.statIssuedInstType_0::SimdFloatCvt            1      0.00%     44.20% # Number of instructions issued per FU type, per thread (Count)
system.cpu.statIssuedInstType_0::SimdFloatDiv            0      0.00%     44.20% # Number of instructions issued per FU type, per thread (Count)
system.cpu.statIssuedInstType_0::SimdFloatMisc            0      0.00%     44.20% # Number of instructions issued per FU type, per thread (Count)
system.cpu.statIssuedInstType_0::SimdFloatMult            0      0.00%     44.20% # Number of instructions issued per FU type, per thread (Count)
system.cpu.statIssuedInstType_0::SimdFloatMultAcc            0      0.00%     44.20% # Number of instructions issued per FU type, per thread (Count)
system.cpu.statIssuedInstType_0::SimdFloatSqrt            0      0.00%     44.20% # Number of instructions issued per FU type, per thread (Count)
system.cpu.statIssuedInstType_0::SimdReduceAdd            0      0.00%     44.20% # Number of instructions issued per FU type, per thread (Count)
system.cpu.statIssuedInstType_0::SimdReduceAlu            0      0.00%     44.20% # Number of instructions issued per FU type, per thread (Count)
system.cpu.statIssuedInstType_0::SimdReduceCmp            0      0.00%     44.20% # Number of instructions issued per FU type, per thread (Count)
system.cpu.statIssuedInstType_0::SimdFloatReduceAdd            0      0.00%     44.20% # Number of instructions issued per FU type, per thread (Count)
system.cpu.statIssuedInstType_0::SimdFloatReduceCmp            0      0.00%     44.20% # Number of instructions issued per FU type, per thread (Count)
system.cpu.statIssuedInstType_0::SimdAes            0      0.00%     44.20% # Number of instructions issued per FU type, per thread (Count)
system.cpu.statIssuedInstType_0::SimdAesMix            0      0.00%     44.20% # Number of instructions issued per FU type, per thread (Count)
system.cpu.statIssuedInstType_0::SimdSha1Hash            0      0.00%     44.20% # Number of instructions issued per FU type, per thread (Count)
system.cpu.statIssuedInstType_0::SimdSha1Hash2            0      0.00%     44.20% # Number of instructions issued per FU type, per thread (Count)
system.cpu.statIssuedInstType_0::SimdSha256Hash            0      0.00%     44.20% # Number of instructions issued per FU type, per thread (Count)
system.cpu.statIssuedInstType_0::SimdSha256Hash2            0      0.00%     44.20% # Number of instructions issued per FU type, per thread (Count)
system.cpu.statIssuedInstType_0::SimdShaSigma2            0      0.00%     44.20% # Number of instructions issued per FU type, per thread (Count)
system.cpu.statIssuedInstType_0::SimdShaSigma3            0      0.00%     44.20% # Number of instructions issued per FU type, per thread (Count)
system.cpu.statIssuedInstType_0::SimdPredAlu            0      0.00%     44.20% # Number of instructions issued per FU type, per thread (Count)
system.cpu.statIssuedInstType_0::MemRead      1367431      1.36%     45.56% # Number of instructions issued per FU type, per thread (Count)
system.cpu.statIssuedInstType_0::MemWrite       204780      0.20%     45.76% # Number of instructions issued per FU type, per thread (Count)
system.cpu.statIssuedInstType_0::FloatMemRead          515      0.00%     45.76% # Number of instructions issued per FU type, per thread (Count)
system.cpu.statIssuedInstType_0::FloatMemWrite     54638777     54.24%    100.00% # Number of instructions issued per FU type, per thread (Count)
system.cpu.statIssuedInstType_0::IprAccess            0      0.00%    100.00% # Number of instructions issued per FU type, per thread (Count)
system.cpu.statIssuedInstType_0::InstPrefetch            0      0.00%    100.00% # Number of instructions issued per FU type, per thread (Count)
system.cpu.statIssuedInstType_0::total      100738476                       # Number of instructions issued per FU type, per thread (Count)
system.cpu.issueRate                         0.255000                       # Inst issue rate ((Count/Cycle))
system.cpu.fuBusy                              809425                       # FU busy when requested (Count)
system.cpu.fuBusyRate                        0.008035                       # FU busy rate (busy events/executed inst) ((Count/Count))
system.cpu.intInstQueueReads                487327284                       # Number of integer instruction queue reads (Count)
system.cpu.intInstQueueWrites                48174310                       # Number of integer instruction queue writes (Count)
system.cpu.intInstQueueWakeupAccesses        46082462                       # Number of integer instruction queue wakeup accesses (Count)
system.cpu.fpInstQueueReads                 109990163                       # Number of floating instruction queue reads (Count)
system.cpu.fpInstQueueWrites                 57464207                       # Number of floating instruction queue writes (Count)
system.cpu.fpInstQueueWakeupAccesses         51834260                       # Number of floating instruction queue wakeup accesses (Count)
system.cpu.vecInstQueueReads                        0                       # Number of vector instruction queue reads (Count)
system.cpu.vecInstQueueWrites                       0                       # Number of vector instruction queue writes (Count)
system.cpu.vecInstQueueWakeupAccesses               0                       # Number of vector instruction queue wakeup accesses (Count)
system.cpu.intAluAccesses                    46200992                       # Number of integer alu accesses (Count)
system.cpu.fpAluAccesses                     55345999                       # Number of floating point alu accesses (Count)
system.cpu.vecAluAccesses                           0                       # Number of vector alu accesses (Count)
system.cpu.numInsts                         100728579                       # Number of executed instructions (Count)
system.cpu.numLoadInsts                       1363885                       # Number of load instructions executed (Count)
system.cpu.numSquashedInsts                      9895                       # Number of squashed instructions skipped in execute (Count)
system.cpu.numSwp                                   0                       # Number of swp insts executed (Count)
system.cpu.numNop                                   0                       # Number of nop insts executed (Count)
system.cpu.numRefs                           56205847                       # Number of memory reference insts executed (Count)
system.cpu.numBranches                        6858066                       # Number of branches executed (Count)
system.cpu.numStoreInsts                     54841962                       # Number of stores executed (Count)
system.cpu.numRate                           0.254975                       # Inst execution rate ((Count/Cycle))
system.cpu.timesIdled                             472                       # Number of times that the entire CPU went into an idle state and unscheduled itself (Count)
system.cpu.idleCycles                           23590                       # Total number of cycles that the CPU has spent unscheduled due to idling (Cycle)
system.cpu.committedInsts                    50000000                       # Number of Instructions Simulated (Count)
system.cpu.committedOps                      95981340                       # Number of Ops (including micro ops) Simulated (Count)
system.cpu.cpi                               7.901066                       # CPI: Cycles Per Instruction ((Cycle/Count))
system.cpu.totalCpi                          7.901066                       # CPI: Total CPI of All Threads ((Cycle/Count))
system.cpu.ipc                               0.126565                       # IPC: Instructions Per Cycle ((Count/Cycle))
system.cpu.totalIpc                          0.126565                       # IPC: Total IPC of All Threads ((Count/Cycle))
system.cpu.intRegfileReads                  104424643                       # Number of integer regfile reads (Count)
system.cpu.intRegfileWrites                  32069275                       # Number of integer regfile writes (Count)
system.cpu.fpRegfileReads                    54647906                       # Number of floating regfile reads (Count)
system.cpu.fpRegfileWrites                       4710                       # Number of floating regfile writes (Count)
system.cpu.ccRegfileReads                    36055475                       # number of cc regfile reads (Count)
system.cpu.ccRegfileWrites                   30553829                       # number of cc regfile writes (Count)
system.cpu.miscRegfileReads                  69940763                       # number of misc regfile reads (Count)
system.cpu.MemDepUnit__0.insertedLoads        1380942                       # Number of loads inserted to the mem dependence unit. (Count)
system.cpu.MemDepUnit__0.insertedStores      54853486                       # Number of stores inserted to the mem dependence unit. (Count)
system.cpu.MemDepUnit__0.conflictingLoads       217602                       # Number of conflicting loads. (Count)
system.cpu.MemDepUnit__0.conflictingStores        56265                       # Number of conflicting stores. (Count)
system.cpu.MemDepUnit__1.insertedLoads              0                       # Number of loads inserted to the mem dependence unit. (Count)
system.cpu.MemDepUnit__1.insertedStores             0                       # Number of stores inserted to the mem dependence unit. (Count)
system.cpu.MemDepUnit__1.conflictingLoads            0                       # Number of conflicting loads. (Count)
system.cpu.MemDepUnit__1.conflictingStores            0                       # Number of conflicting stores. (Count)
system.cpu.MemDepUnit__2.insertedLoads              0                       # Number of loads inserted to the mem dependence unit. (Count)
system.cpu.MemDepUnit__2.insertedStores             0                       # Number of stores inserted to the mem dependence unit. (Count)
system.cpu.MemDepUnit__2.conflictingLoads            0                       # Number of conflicting loads. (Count)
system.cpu.MemDepUnit__2.conflictingStores            0                       # Number of conflicting stores. (Count)
system.cpu.MemDepUnit__3.insertedLoads              0                       # Number of loads inserted to the mem dependence unit. (Count)
system.cpu.MemDepUnit__3.insertedStores             0                       # Number of stores inserted to the mem dependence unit. (Count)
system.cpu.MemDepUnit__3.conflictingLoads            0                       # Number of conflicting loads. (Count)
system.cpu.MemDepUnit__3.conflictingStores            0                       # Number of conflicting stores. (Count)
system.cpu.branchPred.lookups                 7049908                       # Number of BP lookups (Count)
system.cpu.branchPred.condPredicted           7031910                       # Number of conditional branches predicted (Count)
system.cpu.branchPred.condIncorrect              3508                       # Number of conditional branches incorrect (Count)
system.cpu.branchPred.BTBLookups              7023830                       # Number of BTB lookups (Count)
system.cpu.branchPred.BTBHits                 7021152                       # Number of BTB hits (Count)
system.cpu.branchPred.BTBHitRatio            0.999619                       # BTB Hit Ratio (Ratio)
system.cpu.branchPred.RASUsed                    5750                       # Number of times the RAS was used to get a target. (Count)
system.cpu.branchPred.RASIncorrect                  5                       # Number of incorrect RAS predictions. (Count)
system.cpu.branchPred.indirectLookups            1101                       # Number of indirect predictor lookups. (Count)
system.cpu.branchPred.indirectHits                659                       # Number of indirect target hits. (Count)
system.cpu.branchPred.indirectMisses              442                       # Number of indirect misses. (Count)
system.cpu.branchPred.indirectMispredicted          174                       # Number of mispredicted indirect branches. (Count)
system.cpu.commit.commitSquashedInsts         4822527                       # The number of squashed insts skipped by commit (Count)
system.cpu.commit.commitNonSpecStalls              48                       # The number of times commit has been forced to stall to communicate backwards (Count)
system.cpu.commit.branchMispredicts              2639                       # The number of times a branch was mispredicted (Count)
system.cpu.commit.numCommittedDist::samples    394390391                       # Number of insts commited each cycle (Count)
system.cpu.commit.numCommittedDist::mean     0.243366                       # Number of insts commited each cycle (Count)
system.cpu.commit.numCommittedDist::stdev     0.762559                       # Number of insts commited each cycle (Count)
system.cpu.commit.numCommittedDist::underflows            0      0.00%      0.00% # Number of insts commited each cycle (Count)
system.cpu.commit.numCommittedDist::0       334468618     84.81%     84.81% # Number of insts commited each cycle (Count)
system.cpu.commit.numCommittedDist::1        44960879     11.40%     96.21% # Number of insts commited each cycle (Count)
system.cpu.commit.numCommittedDist::2         1767985      0.45%     96.65% # Number of insts commited each cycle (Count)
system.cpu.commit.numCommittedDist::3        11084750      2.81%     99.47% # Number of insts commited each cycle (Count)
system.cpu.commit.numCommittedDist::4          351482      0.09%     99.55% # Number of insts commited each cycle (Count)
system.cpu.commit.numCommittedDist::5           21156      0.01%     99.56% # Number of insts commited each cycle (Count)
system.cpu.commit.numCommittedDist::6          579104      0.15%     99.71% # Number of insts commited each cycle (Count)
system.cpu.commit.numCommittedDist::7            7427      0.00%     99.71% # Number of insts commited each cycle (Count)
system.cpu.commit.numCommittedDist::8         1148990      0.29%    100.00% # Number of insts commited each cycle (Count)
system.cpu.commit.numCommittedDist::overflows            0      0.00%    100.00% # Number of insts commited each cycle (Count)
system.cpu.commit.numCommittedDist::min_value            0                       # Number of insts commited each cycle (Count)
system.cpu.commit.numCommittedDist::max_value            8                       # Number of insts commited each cycle (Count)
system.cpu.commit.numCommittedDist::total    394390391                       # Number of insts commited each cycle (Count)
system.cpu.commit.instsCommitted             50000000                       # Number of instructions committed (Count)
system.cpu.commit.opsCommitted               95981340                       # Number of ops (including micro ops) committed (Count)
system.cpu.commit.memRefs                    53378545                       # Number of memory references committed (Count)
system.cpu.commit.loads                       1350127                       # Number of loads committed (Count)
system.cpu.commit.amos                              0                       # Number of atomic instructions committed (Count)
system.cpu.commit.membars                          32                       # Number of memory barriers committed (Count)
system.cpu.commit.branches                    6543968                       # Number of branches committed (Count)
system.cpu.commit.vectorInstructions                0                       # Number of committed Vector instructions. (Count)
system.cpu.commit.floating                   51833437                       # Number of committed floating point instructions. (Count)
system.cpu.commit.integer                    95975912                       # Number of committed integer instructions. (Count)
system.cpu.commit.functionCalls                  3805                       # Number of function calls committed. (Count)
system.cpu.commit.committedInstType_0::No_OpClass          552      0.00%      0.00% # Class of committed instruction (Count)
system.cpu.commit.committedInstType_0::IntAlu     42597873     44.38%     44.38% # Class of committed instruction (Count)
system.cpu.commit.committedInstType_0::IntMult          725      0.00%     44.38% # Class of committed instruction (Count)
system.cpu.commit.committedInstType_0::IntDiv           21      0.00%     44.38% # Class of committed instruction (Count)
system.cpu.commit.committedInstType_0::FloatAdd          199      0.00%     44.38% # Class of committed instruction (Count)
system.cpu.commit.committedInstType_0::FloatCmp            0      0.00%     44.38% # Class of committed instruction (Count)
system.cpu.commit.committedInstType_0::FloatCvt            0      0.00%     44.38% # Class of committed instruction (Count)
system.cpu.commit.committedInstType_0::FloatMult            0      0.00%     44.38% # Class of committed instruction (Count)
system.cpu.commit.committedInstType_0::FloatMultAcc            0      0.00%     44.38% # Class of committed instruction (Count)
system.cpu.commit.committedInstType_0::FloatDiv            0      0.00%     44.38% # Class of committed instruction (Count)
system.cpu.commit.committedInstType_0::FloatMisc            0      0.00%     44.38% # Class of committed instruction (Count)
system.cpu.commit.committedInstType_0::FloatSqrt            0      0.00%     44.38% # Class of committed instruction (Count)
system.cpu.commit.committedInstType_0::SimdAdd            0      0.00%     44.38% # Class of committed instruction (Count)
system.cpu.commit.committedInstType_0::SimdAddAcc            0      0.00%     44.38% # Class of committed instruction (Count)
system.cpu.commit.committedInstType_0::SimdAlu          786      0.00%     44.38% # Class of committed instruction (Count)
system.cpu.commit.committedInstType_0::SimdCmp           12      0.00%     44.38% # Class of committed instruction (Count)
system.cpu.commit.committedInstType_0::SimdCvt          788      0.00%     44.38% # Class of committed instruction (Count)
system.cpu.commit.committedInstType_0::SimdMisc         1839      0.00%     44.39% # Class of committed instruction (Count)
system.cpu.commit.committedInstType_0::SimdMult            0      0.00%     44.39% # Class of committed instruction (Count)
system.cpu.commit.committedInstType_0::SimdMultAcc            0      0.00%     44.39% # Class of committed instruction (Count)
system.cpu.commit.committedInstType_0::SimdShift            0      0.00%     44.39% # Class of committed instruction (Count)
system.cpu.commit.committedInstType_0::SimdShiftAcc            0      0.00%     44.39% # Class of committed instruction (Count)
system.cpu.commit.committedInstType_0::SimdDiv            0      0.00%     44.39% # Class of committed instruction (Count)
system.cpu.commit.committedInstType_0::SimdSqrt            0      0.00%     44.39% # Class of committed instruction (Count)
system.cpu.commit.committedInstType_0::SimdFloatAdd            0      0.00%     44.39% # Class of committed instruction (Count)
system.cpu.commit.committedInstType_0::SimdFloatAlu            0      0.00%     44.39% # Class of committed instruction (Count)
system.cpu.commit.committedInstType_0::SimdFloatCmp            0      0.00%     44.39% # Class of committed instruction (Count)
system.cpu.commit.committedInstType_0::SimdFloatCvt            0      0.00%     44.39% # Class of committed instruction (Count)
system.cpu.commit.committedInstType_0::SimdFloatDiv            0      0.00%     44.39% # Class of committed instruction (Count)
system.cpu.commit.committedInstType_0::SimdFloatMisc            0      0.00%     44.39% # Class of committed instruction (Count)
system.cpu.commit.committedInstType_0::SimdFloatMult            0      0.00%     44.39% # Class of committed instruction (Count)
system.cpu.commit.committedInstType_0::SimdFloatMultAcc            0      0.00%     44.39% # Class of committed instruction (Count)
system.cpu.commit.committedInstType_0::SimdFloatSqrt            0      0.00%     44.39% # Class of committed instruction (Count)
system.cpu.commit.committedInstType_0::SimdReduceAdd            0      0.00%     44.39% # Class of committed instruction (Count)
system.cpu.commit.committedInstType_0::SimdReduceAlu            0      0.00%     44.39% # Class of committed instruction (Count)
system.cpu.commit.committedInstType_0::SimdReduceCmp            0      0.00%     44.39% # Class of committed instruction (Count)
system.cpu.commit.committedInstType_0::SimdFloatReduceAdd            0      0.00%     44.39% # Class of committed instruction (Count)
system.cpu.commit.committedInstType_0::SimdFloatReduceCmp            0      0.00%     44.39% # Class of committed instruction (Count)
system.cpu.commit.committedInstType_0::SimdAes            0      0.00%     44.39% # Class of committed instruction (Count)
system.cpu.commit.committedInstType_0::SimdAesMix            0      0.00%     44.39% # Class of committed instruction (Count)
system.cpu.commit.committedInstType_0::SimdSha1Hash            0      0.00%     44.39% # Class of committed instruction (Count)
system.cpu.commit.committedInstType_0::SimdSha1Hash2            0      0.00%     44.39% # Class of committed instruction (Count)
system.cpu.commit.committedInstType_0::SimdSha256Hash            0      0.00%     44.39% # Class of committed instruction (Count)
system.cpu.commit.committedInstType_0::SimdSha256Hash2            0      0.00%     44.39% # Class of committed instruction (Count)
system.cpu.commit.committedInstType_0::SimdShaSigma2            0      0.00%     44.39% # Class of committed instruction (Count)
system.cpu.commit.committedInstType_0::SimdShaSigma3            0      0.00%     44.39% # Class of committed instruction (Count)
system.cpu.commit.committedInstType_0::SimdPredAlu            0      0.00%     44.39% # Class of committed instruction (Count)
system.cpu.commit.committedInstType_0::MemRead      1349679      1.41%     45.79% # Class of committed instruction (Count)
system.cpu.commit.committedInstType_0::MemWrite       199602      0.21%     46.00% # Class of committed instruction (Count)
system.cpu.commit.committedInstType_0::FloatMemRead          448      0.00%     46.00% # Class of committed instruction (Count)
system.cpu.commit.committedInstType_0::FloatMemWrite     51828816     54.00%    100.00% # Class of committed instruction (Count)
system.cpu.commit.committedInstType_0::IprAccess            0      0.00%    100.00% # Class of committed instruction (Count)
system.cpu.commit.committedInstType_0::InstPrefetch            0      0.00%    100.00% # Class of committed instruction (Count)
system.cpu.commit.committedInstType_0::total     95981340                       # Class of committed instruction (Count)
system.cpu.commit.commitEligibleSamples       1148990                       # number cycles where commit BW limit reached (Cycle)
system.cpu.dcache.demandHits::cpu.data       49870546                       # number of demand (read+write) hits (Count)
system.cpu.dcache.demandHits::total          49870546                       # number of demand (read+write) hits (Count)
system.cpu.dcache.overallHits::cpu.data      49870546                       # number of overall hits (Count)
system.cpu.dcache.overallHits::total         49870546                       # number of overall hits (Count)
system.cpu.dcache.demandMisses::cpu.data      3248462                       # number of demand (read+write) misses (Count)
system.cpu.dcache.demandMisses::total         3248462                       # number of demand (read+write) misses (Count)
system.cpu.dcache.overallMisses::cpu.data      3248462                       # number of overall misses (Count)
system.cpu.dcache.overallMisses::total        3248462                       # number of overall misses (Count)
system.cpu.dcache.demandMissLatency::cpu.data 294008668999                       # number of demand (read+write) miss ticks (Tick)
system.cpu.dcache.demandMissLatency::total 294008668999                       # number of demand (read+write) miss ticks (Tick)
system.cpu.dcache.overallMissLatency::cpu.data 294008668999                       # number of overall miss ticks (Tick)
system.cpu.dcache.overallMissLatency::total 294008668999                       # number of overall miss ticks (Tick)
system.cpu.dcache.demandAccesses::cpu.data     53119008                       # number of demand (read+write) accesses (Count)
system.cpu.dcache.demandAccesses::total      53119008                       # number of demand (read+write) accesses (Count)
system.cpu.dcache.overallAccesses::cpu.data     53119008                       # number of overall (read+write) accesses (Count)
system.cpu.dcache.overallAccesses::total     53119008                       # number of overall (read+write) accesses (Count)
system.cpu.dcache.demandMissRate::cpu.data     0.061154                       # miss rate for demand accesses (Ratio)
system.cpu.dcache.demandMissRate::total      0.061154                       # miss rate for demand accesses (Ratio)
system.cpu.dcache.overallMissRate::cpu.data     0.061154                       # miss rate for overall accesses (Ratio)
system.cpu.dcache.overallMissRate::total     0.061154                       # miss rate for overall accesses (Ratio)
system.cpu.dcache.demandAvgMissLatency::cpu.data 90507.036560                       # average overall miss latency in ticks ((Tick/Count))
system.cpu.dcache.demandAvgMissLatency::total 90507.036560                       # average overall miss latency in ticks ((Tick/Count))
system.cpu.dcache.overallAvgMissLatency::cpu.data 90507.036560                       # average overall miss latency ((Tick/Count))
system.cpu.dcache.overallAvgMissLatency::total 90507.036560                       # average overall miss latency ((Tick/Count))
system.cpu.dcache.blockedCycles::no_mshrs         1212                       # number of cycles access was blocked (Cycle)
system.cpu.dcache.blockedCycles::no_targets            0                       # number of cycles access was blocked (Cycle)
system.cpu.dcache.blockedCauses::no_mshrs           37                       # number of times access was blocked (Count)
system.cpu.dcache.blockedCauses::no_targets            0                       # number of times access was blocked (Count)
system.cpu.dcache.avgBlocked::no_mshrs      32.756757                       # average number of cycles each access was blocked ((Cycle/Count))
system.cpu.dcache.avgBlocked::no_targets          nan                       # average number of cycles each access was blocked ((Cycle/Count))
system.cpu.dcache.writebacks::writebacks      6480624                       # number of writebacks (Count)
system.cpu.dcache.writebacks::total           6480624                       # number of writebacks (Count)
system.cpu.dcache.demandMshrHits::cpu.data        12805                       # number of demand (read+write) MSHR hits (Count)
system.cpu.dcache.demandMshrHits::total         12805                       # number of demand (read+write) MSHR hits (Count)
system.cpu.dcache.overallMshrHits::cpu.data        12805                       # number of overall MSHR hits (Count)
system.cpu.dcache.overallMshrHits::total        12805                       # number of overall MSHR hits (Count)
system.cpu.dcache.demandMshrMisses::cpu.data      3235657                       # number of demand (read+write) MSHR misses (Count)
system.cpu.dcache.demandMshrMisses::total      3235657                       # number of demand (read+write) MSHR misses (Count)
system.cpu.dcache.overallMshrMisses::cpu.data      3235657                       # number of overall MSHR misses (Count)
system.cpu.dcache.overallMshrMisses::cpu.dcache.prefetcher      3246325                       # number of overall MSHR misses (Count)
system.cpu.dcache.overallMshrMisses::total      6481982                       # number of overall MSHR misses (Count)
system.cpu.dcache.demandMshrMissLatency::cpu.data 290031830999                       # number of demand (read+write) MSHR miss ticks (Tick)
system.cpu.dcache.demandMshrMissLatency::total 290031830999                       # number of demand (read+write) MSHR miss ticks (Tick)
system.cpu.dcache.overallMshrMissLatency::cpu.data 290031830999                       # number of overall MSHR miss ticks (Tick)
system.cpu.dcache.overallMshrMissLatency::cpu.dcache.prefetcher 298021709446                       # number of overall MSHR miss ticks (Tick)
system.cpu.dcache.overallMshrMissLatency::total 588053540445                       # number of overall MSHR miss ticks (Tick)
system.cpu.dcache.demandMshrMissRate::cpu.data     0.060913                       # mshr miss ratio for demand accesses (Ratio)
system.cpu.dcache.demandMshrMissRate::total     0.060913                       # mshr miss ratio for demand accesses (Ratio)
system.cpu.dcache.overallMshrMissRate::cpu.data     0.060913                       # mshr miss ratio for overall accesses (Ratio)
system.cpu.dcache.overallMshrMissRate::cpu.dcache.prefetcher          inf                       # mshr miss ratio for overall accesses (Ratio)
system.cpu.dcache.overallMshrMissRate::total     0.122028                       # mshr miss ratio for overall accesses (Ratio)
system.cpu.dcache.demandAvgMshrMissLatency::cpu.data 89636.148392                       # average overall mshr miss latency ((Tick/Count))
system.cpu.dcache.demandAvgMshrMissLatency::total 89636.148392                       # average overall mshr miss latency ((Tick/Count))
system.cpu.dcache.overallAvgMshrMissLatency::cpu.data 89636.148392                       # average overall mshr miss latency ((Tick/Count))
system.cpu.dcache.overallAvgMshrMissLatency::cpu.dcache.prefetcher 91802.795298                       # average overall mshr miss latency ((Tick/Count))
system.cpu.dcache.overallAvgMshrMissLatency::total 90721.254771                       # average overall mshr miss latency ((Tick/Count))
system.cpu.dcache.replacements                6480956                       # number of replacements (Count)
system.cpu.dcache.HardPFReq.mshrMisses::cpu.dcache.prefetcher      3246325                       # number of HardPFReq MSHR misses (Count)
system.cpu.dcache.HardPFReq.mshrMisses::total      3246325                       # number of HardPFReq MSHR misses (Count)
system.cpu.dcache.HardPFReq.mshrMissLatency::cpu.dcache.prefetcher 298021709446                       # number of HardPFReq MSHR miss ticks (Tick)
system.cpu.dcache.HardPFReq.mshrMissLatency::total 298021709446                       # number of HardPFReq MSHR miss ticks (Tick)
system.cpu.dcache.HardPFReq.mshrMissRate::cpu.dcache.prefetcher          inf                       # mshr miss rate for HardPFReq accesses (Ratio)
system.cpu.dcache.HardPFReq.mshrMissRate::total          inf                       # mshr miss rate for HardPFReq accesses (Ratio)
system.cpu.dcache.HardPFReq.avgMshrMissLatency::cpu.dcache.prefetcher 91802.795298                       # average HardPFReq mshr miss latency ((Tick/Count))
system.cpu.dcache.HardPFReq.avgMshrMissLatency::total 91802.795298                       # average HardPFReq mshr miss latency ((Tick/Count))
system.cpu.dcache.LockedRMWReadReq.hits::cpu.data           16                       # number of LockedRMWReadReq hits (Count)
system.cpu.dcache.LockedRMWReadReq.hits::total           16                       # number of LockedRMWReadReq hits (Count)
system.cpu.dcache.LockedRMWReadReq.accesses::cpu.data           16                       # number of LockedRMWReadReq accesses(hits+misses) (Count)
system.cpu.dcache.LockedRMWReadReq.accesses::total           16                       # number of LockedRMWReadReq accesses(hits+misses) (Count)
system.cpu.dcache.LockedRMWReadReq.mshrMissLatency::cpu.data       217000                       # number of LockedRMWReadReq MSHR miss ticks (Tick)
system.cpu.dcache.LockedRMWReadReq.mshrMissLatency::total       217000                       # number of LockedRMWReadReq MSHR miss ticks (Tick)
system.cpu.dcache.LockedRMWReadReq.avgMshrMissLatency::cpu.data          inf                       # average LockedRMWReadReq mshr miss latency ((Tick/Count))
system.cpu.dcache.LockedRMWReadReq.avgMshrMissLatency::total          inf                       # average LockedRMWReadReq mshr miss latency ((Tick/Count))
system.cpu.dcache.LockedRMWWriteReq.hits::cpu.data           16                       # number of LockedRMWWriteReq hits (Count)
system.cpu.dcache.LockedRMWWriteReq.hits::total           16                       # number of LockedRMWWriteReq hits (Count)
system.cpu.dcache.LockedRMWWriteReq.accesses::cpu.data           16                       # number of LockedRMWWriteReq accesses(hits+misses) (Count)
system.cpu.dcache.LockedRMWWriteReq.accesses::total           16                       # number of LockedRMWWriteReq accesses(hits+misses) (Count)
system.cpu.dcache.ReadReq.hits::cpu.data      1090045                       # number of ReadReq hits (Count)
system.cpu.dcache.ReadReq.hits::total         1090045                       # number of ReadReq hits (Count)
system.cpu.dcache.ReadReq.misses::cpu.data          684                       # number of ReadReq misses (Count)
system.cpu.dcache.ReadReq.misses::total           684                       # number of ReadReq misses (Count)
system.cpu.dcache.ReadReq.missLatency::cpu.data     56759000                       # number of ReadReq miss ticks (Tick)
system.cpu.dcache.ReadReq.missLatency::total     56759000                       # number of ReadReq miss ticks (Tick)
system.cpu.dcache.ReadReq.accesses::cpu.data      1090729                       # number of ReadReq accesses(hits+misses) (Count)
system.cpu.dcache.ReadReq.accesses::total      1090729                       # number of ReadReq accesses(hits+misses) (Count)
system.cpu.dcache.ReadReq.missRate::cpu.data     0.000627                       # miss rate for ReadReq accesses (Ratio)
system.cpu.dcache.ReadReq.missRate::total     0.000627                       # miss rate for ReadReq accesses (Ratio)
system.cpu.dcache.ReadReq.avgMissLatency::cpu.data 82980.994152                       # average ReadReq miss latency ((Tick/Count))
system.cpu.dcache.ReadReq.avgMissLatency::total 82980.994152                       # average ReadReq miss latency ((Tick/Count))
system.cpu.dcache.ReadReq.mshrHits::cpu.data          313                       # number of ReadReq MSHR hits (Count)
system.cpu.dcache.ReadReq.mshrHits::total          313                       # number of ReadReq MSHR hits (Count)
system.cpu.dcache.ReadReq.mshrMisses::cpu.data          371                       # number of ReadReq MSHR misses (Count)
system.cpu.dcache.ReadReq.mshrMisses::total          371                       # number of ReadReq MSHR misses (Count)
system.cpu.dcache.ReadReq.mshrMissLatency::cpu.data     33509000                       # number of ReadReq MSHR miss ticks (Tick)
system.cpu.dcache.ReadReq.mshrMissLatency::total     33509000                       # number of ReadReq MSHR miss ticks (Tick)
system.cpu.dcache.ReadReq.mshrMissRate::cpu.data     0.000340                       # mshr miss rate for ReadReq accesses (Ratio)
system.cpu.dcache.ReadReq.mshrMissRate::total     0.000340                       # mshr miss rate for ReadReq accesses (Ratio)
system.cpu.dcache.ReadReq.avgMshrMissLatency::cpu.data 90320.754717                       # average ReadReq mshr miss latency ((Tick/Count))
system.cpu.dcache.ReadReq.avgMshrMissLatency::total 90320.754717                       # average ReadReq mshr miss latency ((Tick/Count))
system.cpu.dcache.WriteReq.hits::cpu.data     48780501                       # number of WriteReq hits (Count)
system.cpu.dcache.WriteReq.hits::total       48780501                       # number of WriteReq hits (Count)
system.cpu.dcache.WriteReq.misses::cpu.data      3247778                       # number of WriteReq misses (Count)
system.cpu.dcache.WriteReq.misses::total      3247778                       # number of WriteReq misses (Count)
system.cpu.dcache.WriteReq.missLatency::cpu.data 293951909999                       # number of WriteReq miss ticks (Tick)
system.cpu.dcache.WriteReq.missLatency::total 293951909999                       # number of WriteReq miss ticks (Tick)
system.cpu.dcache.WriteReq.accesses::cpu.data     52028279                       # number of WriteReq accesses(hits+misses) (Count)
system.cpu.dcache.WriteReq.accesses::total     52028279                       # number of WriteReq accesses(hits+misses) (Count)
system.cpu.dcache.WriteReq.missRate::cpu.data     0.062423                       # miss rate for WriteReq accesses (Ratio)
system.cpu.dcache.WriteReq.missRate::total     0.062423                       # miss rate for WriteReq accesses (Ratio)
system.cpu.dcache.WriteReq.avgMissLatency::cpu.data 90508.621587                       # average WriteReq miss latency ((Tick/Count))
system.cpu.dcache.WriteReq.avgMissLatency::total 90508.621587                       # average WriteReq miss latency ((Tick/Count))
system.cpu.dcache.WriteReq.mshrHits::cpu.data        12492                       # number of WriteReq MSHR hits (Count)
system.cpu.dcache.WriteReq.mshrHits::total        12492                       # number of WriteReq MSHR hits (Count)
system.cpu.dcache.WriteReq.mshrMisses::cpu.data      3235286                       # number of WriteReq MSHR misses (Count)
system.cpu.dcache.WriteReq.mshrMisses::total      3235286                       # number of WriteReq MSHR misses (Count)
system.cpu.dcache.WriteReq.mshrMissLatency::cpu.data 289998321999                       # number of WriteReq MSHR miss ticks (Tick)
system.cpu.dcache.WriteReq.mshrMissLatency::total 289998321999                       # number of WriteReq MSHR miss ticks (Tick)
system.cpu.dcache.WriteReq.mshrMissRate::cpu.data     0.062183                       # mshr miss rate for WriteReq accesses (Ratio)
system.cpu.dcache.WriteReq.mshrMissRate::total     0.062183                       # mshr miss rate for WriteReq accesses (Ratio)
system.cpu.dcache.WriteReq.avgMshrMissLatency::cpu.data 89636.069887                       # average WriteReq mshr miss latency ((Tick/Count))
system.cpu.dcache.WriteReq.avgMshrMissLatency::total 89636.069887                       # average WriteReq mshr miss latency ((Tick/Count))
system.cpu.dcache.power_state.pwrStateResidencyTicks::UNDEFINED 395053313000                       # Cumulative time (in ticks) in various power states (Tick)
system.cpu.dcache.prefetcher.demandMshrMisses      3235657                       # demands not covered by prefetchs (Count)
system.cpu.dcache.prefetcher.pfIssued         3252984                       # number of hwpf issued (Count)
system.cpu.dcache.prefetcher.pfUnused              53                       # number of HardPF blocks evicted w/o reference (Count)
system.cpu.dcache.prefetcher.pfUseful         3233785                       # number of useful prefetch (Count)
system.cpu.dcache.prefetcher.pfUsefulButMiss            0                       # number of hit on prefetch but cache block is not in an usable state (Count)
system.cpu.dcache.prefetcher.accuracy        0.994098                       # accuracy of the prefetcher (Count)
system.cpu.dcache.prefetcher.coverage        0.499855                       # coverage brought by this prefetcher (Count)
system.cpu.dcache.prefetcher.pfHitInCache         6610                       # number of prefetches hitting in cache (Count)
system.cpu.dcache.prefetcher.pfHitInMSHR           49                       # number of prefetches hitting in a MSHR (Count)
system.cpu.dcache.prefetcher.pfHitInWB              0                       # number of prefetches hit in the Write Buffer (Count)
system.cpu.dcache.prefetcher.pfLate              6659                       # number of late prefetches (hitting in cache, MSHR or WB) (Count)
system.cpu.dcache.prefetcher.pfIdentified      3258915                       # number of prefetch candidates identified (Count)
system.cpu.dcache.prefetcher.pfBufferHit         3656                       # number of redundant prefetches already in prefetch queue (Count)
system.cpu.dcache.prefetcher.pfInCache              0                       # number of redundant prefetches already in cache/mshr dropped (Count)
system.cpu.dcache.prefetcher.pfRemovedDemand          206                       # number of prefetches dropped due to a demand for the same address (Count)
system.cpu.dcache.prefetcher.pfRemovedFull            0                       # number of prefetches dropped due to prefetch queue size (Count)
system.cpu.dcache.prefetcher.pfSpanPage          9305                       # number of prefetches that crossed the page (Count)
system.cpu.dcache.prefetcher.pfUsefulSpanPage            0                       # number of prefetches that is useful and crossed the page (Count)
system.cpu.dcache.prefetcher.power_state.pwrStateResidencyTicks::UNDEFINED 395053313000                       # Cumulative time (in ticks) in various power states (Tick)
system.cpu.dcache.tags.tagsInUse          1023.560466                       # Average ticks per tags in use ((Tick/Count))
system.cpu.dcache.tags.totalRefs             56352558                       # Total number of references to valid blocks. (Count)
system.cpu.dcache.tags.sampledRefs            6481980                       # Sample count of references to valid blocks. (Count)
system.cpu.dcache.tags.avgRefs               8.693726                       # Average number of references to valid blocks. ((Count/Count))
system.cpu.dcache.tags.warmupTick              185000                       # The tick when the warmup percentage was hit. (Tick)
system.cpu.dcache.tags.occupancies::cpu.data   511.677159                       # Average occupied blocks per tick, per requestor ((Count/Tick))
system.cpu.dcache.tags.occupancies::cpu.dcache.prefetcher   511.883307                       # Average occupied blocks per tick, per requestor ((Count/Tick))
system.cpu.dcache.tags.avgOccs::cpu.data     0.499685                       # Average percentage of cache occupancy ((Ratio/Tick))
system.cpu.dcache.tags.avgOccs::cpu.dcache.prefetcher     0.499886                       # Average percentage of cache occupancy ((Ratio/Tick))
system.cpu.dcache.tags.avgOccs::total        0.999571                       # Average percentage of cache occupancy ((Ratio/Tick))
system.cpu.dcache.tags.occupanciesTaskId::1022          512                       # Occupied blocks per task id (Count)
system.cpu.dcache.tags.occupanciesTaskId::1024          512                       # Occupied blocks per task id (Count)
system.cpu.dcache.tags.ageTaskId_1022::0           81                       # Occupied blocks per task id, per block age (Count)
system.cpu.dcache.tags.ageTaskId_1022::1          431                       # Occupied blocks per task id, per block age (Count)
system.cpu.dcache.tags.ageTaskId_1024::0           81                       # Occupied blocks per task id, per block age (Count)
system.cpu.dcache.tags.ageTaskId_1024::1          431                       # Occupied blocks per task id, per block age (Count)
system.cpu.dcache.tags.ratioOccsTaskId::1022     0.500000                       # Ratio of occupied blocks and all blocks, per task id (Ratio)
system.cpu.dcache.tags.ratioOccsTaskId::1024     0.500000                       # Ratio of occupied blocks and all blocks, per task id (Ratio)
system.cpu.dcache.tags.tagAccesses          218958140                       # Number of tag accesses (Count)
system.cpu.dcache.tags.dataAccesses         218958140                       # Number of data accesses (Count)
system.cpu.dcache.tags.power_state.pwrStateResidencyTicks::UNDEFINED 395053313000                       # Cumulative time (in ticks) in various power states (Tick)
system.cpu.decode.idleCycles                  3948095                       # Number of cycles decode is idle (Cycle)
system.cpu.decode.blockedCycles             378341173                       # Number of cycles decode is blocked (Cycle)
system.cpu.decode.runCycles                   1264890                       # Number of cycles decode is running (Cycle)
system.cpu.decode.unblockCycles              11428361                       # Number of cycles decode is unblocking (Cycle)
system.cpu.decode.squashCycles                  47210                       # Number of cycles decode is squashing (Cycle)
system.cpu.decode.branchResolved              6888134                       # Number of times decode resolved a branch (Count)
system.cpu.decode.branchMispred                   931                       # Number of times decode detected a branch misprediction (Count)
system.cpu.decode.decodedInsts              101364746                       # Number of instructions handled by decode (Count)
system.cpu.decode.squashedInsts                  4605                       # Number of squashed instructions handled by decode (Count)
system.cpu.fetch.icacheStallCycles             334277                       # Number of cycles fetch is stalled on an Icache miss (Cycle)
system.cpu.fetch.insts                       53623344                       # Number of instructions fetch has processed (Count)
system.cpu.fetch.branches                     7049908                       # Number of branches that fetch encountered (Count)
system.cpu.fetch.predictedBranches            7027561                       # Number of branches that fetch has predicted taken (Count)
system.cpu.fetch.cycles                     394646959                       # Number of cycles fetch has run and was not squashing or blocked (Cycle)
system.cpu.fetch.squashCycles                   96228                       # Number of cycles fetch has spent squashing (Cycle)
system.cpu.fetch.miscStallCycles                   47                       # Number of cycles fetch has spent waiting on interrupts, or bad addresses, or out of MSHRs (Cycle)
system.cpu.fetch.pendingTrapStallCycles           320                       # Number of stall cycles due to pending traps (Cycle)
system.cpu.fetch.icacheWaitRetryStallCycles           12                       # Number of stall cycles due to full MSHR (Cycle)
system.cpu.fetch.cacheLines                    302406                       # Number of cache lines fetched (Count)
system.cpu.fetch.icacheSquashes                  1465                       # Number of outstanding Icache misses that were squashed (Count)
system.cpu.fetch.nisnDist::samples          395029729                       # Number of instructions fetched each cycle (Total) (Count)
system.cpu.fetch.nisnDist::mean              0.261201                       # Number of instructions fetched each cycle (Total) (Count)
system.cpu.fetch.nisnDist::stdev             1.287458                       # Number of instructions fetched each cycle (Total) (Count)
system.cpu.fetch.nisnDist::underflows               0      0.00%      0.00% # Number of instructions fetched each cycle (Total) (Count)
system.cpu.fetch.nisnDist::0                376522320     95.31%     95.31% # Number of instructions fetched each cycle (Total) (Count)
system.cpu.fetch.nisnDist::1                   945179      0.24%     95.55% # Number of instructions fetched each cycle (Total) (Count)
system.cpu.fetch.nisnDist::2                  2361907      0.60%     96.15% # Number of instructions fetched each cycle (Total) (Count)
system.cpu.fetch.nisnDist::3                   957756      0.24%     96.39% # Number of instructions fetched each cycle (Total) (Count)
system.cpu.fetch.nisnDist::4                  2404907      0.61%     97.00% # Number of instructions fetched each cycle (Total) (Count)
system.cpu.fetch.nisnDist::5                   939858      0.24%     97.24% # Number of instructions fetched each cycle (Total) (Count)
system.cpu.fetch.nisnDist::6                  3102795      0.79%     98.03% # Number of instructions fetched each cycle (Total) (Count)
system.cpu.fetch.nisnDist::7                   655781      0.17%     98.19% # Number of instructions fetched each cycle (Total) (Count)
system.cpu.fetch.nisnDist::8                  7139226      1.81%    100.00% # Number of instructions fetched each cycle (Total) (Count)
system.cpu.fetch.nisnDist::overflows                0      0.00%    100.00% # Number of instructions fetched each cycle (Total) (Count)
system.cpu.fetch.nisnDist::min_value                0                       # Number of instructions fetched each cycle (Total) (Count)
system.cpu.fetch.nisnDist::max_value                8                       # Number of instructions fetched each cycle (Total) (Count)
system.cpu.fetch.nisnDist::total            395029729                       # Number of instructions fetched each cycle (Total) (Count)
system.cpu.fetch.branchRate                  0.017845                       # Number of branch fetches per cycle (Ratio)
system.cpu.fetch.rate                        0.135737                       # Number of inst fetches per cycle ((Count/Cycle))
system.cpu.icache.demandHits::cpu.inst         301077                       # number of demand (read+write) hits (Count)
system.cpu.icache.demandHits::total            301077                       # number of demand (read+write) hits (Count)
system.cpu.icache.overallHits::cpu.inst        301077                       # number of overall hits (Count)
system.cpu.icache.overallHits::total           301077                       # number of overall hits (Count)
system.cpu.icache.demandMisses::cpu.inst         1329                       # number of demand (read+write) misses (Count)
system.cpu.icache.demandMisses::total            1329                       # number of demand (read+write) misses (Count)
system.cpu.icache.overallMisses::cpu.inst         1329                       # number of overall misses (Count)
system.cpu.icache.overallMisses::total           1329                       # number of overall misses (Count)
system.cpu.icache.demandMissLatency::cpu.inst    103083999                       # number of demand (read+write) miss ticks (Tick)
system.cpu.icache.demandMissLatency::total    103083999                       # number of demand (read+write) miss ticks (Tick)
system.cpu.icache.overallMissLatency::cpu.inst    103083999                       # number of overall miss ticks (Tick)
system.cpu.icache.overallMissLatency::total    103083999                       # number of overall miss ticks (Tick)
system.cpu.icache.demandAccesses::cpu.inst       302406                       # number of demand (read+write) accesses (Count)
system.cpu.icache.demandAccesses::total        302406                       # number of demand (read+write) accesses (Count)
system.cpu.icache.overallAccesses::cpu.inst       302406                       # number of overall (read+write) accesses (Count)
system.cpu.icache.overallAccesses::total       302406                       # number of overall (read+write) accesses (Count)
system.cpu.icache.demandMissRate::cpu.inst     0.004395                       # miss rate for demand accesses (Ratio)
system.cpu.icache.demandMissRate::total      0.004395                       # miss rate for demand accesses (Ratio)
system.cpu.icache.overallMissRate::cpu.inst     0.004395                       # miss rate for overall accesses (Ratio)
system.cpu.icache.overallMissRate::total     0.004395                       # miss rate for overall accesses (Ratio)
system.cpu.icache.demandAvgMissLatency::cpu.inst 77565.085779                       # average overall miss latency in ticks ((Tick/Count))
system.cpu.icache.demandAvgMissLatency::total 77565.085779                       # average overall miss latency in ticks ((Tick/Count))
system.cpu.icache.overallAvgMissLatency::cpu.inst 77565.085779                       # average overall miss latency ((Tick/Count))
system.cpu.icache.overallAvgMissLatency::total 77565.085779                       # average overall miss latency ((Tick/Count))
system.cpu.icache.blockedCycles::no_mshrs           98                       # number of cycles access was blocked (Cycle)
system.cpu.icache.blockedCycles::no_targets            0                       # number of cycles access was blocked (Cycle)
system.cpu.icache.blockedCauses::no_mshrs            6                       # number of times access was blocked (Count)
system.cpu.icache.blockedCauses::no_targets            0                       # number of times access was blocked (Count)
system.cpu.icache.avgBlocked::no_mshrs      16.333333                       # average number of cycles each access was blocked ((Cycle/Count))
system.cpu.icache.avgBlocked::no_targets          nan                       # average number of cycles each access was blocked ((Cycle/Count))
system.cpu.icache.demandMshrHits::cpu.inst          345                       # number of demand (read+write) MSHR hits (Count)
system.cpu.icache.demandMshrHits::total           345                       # number of demand (read+write) MSHR hits (Count)
system.cpu.icache.overallMshrHits::cpu.inst          345                       # number of overall MSHR hits (Count)
system.cpu.icache.overallMshrHits::total          345                       # number of overall MSHR hits (Count)
system.cpu.icache.demandMshrMisses::cpu.inst          984                       # number of demand (read+write) MSHR misses (Count)
system.cpu.icache.demandMshrMisses::total          984                       # number of demand (read+write) MSHR misses (Count)
system.cpu.icache.overallMshrMisses::cpu.inst          984                       # number of overall MSHR misses (Count)
system.cpu.icache.overallMshrMisses::total          984                       # number of overall MSHR misses (Count)
system.cpu.icache.demandMshrMissLatency::cpu.inst     84180999                       # number of demand (read+write) MSHR miss ticks (Tick)
system.cpu.icache.demandMshrMissLatency::total     84180999                       # number of demand (read+write) MSHR miss ticks (Tick)
system.cpu.icache.overallMshrMissLatency::cpu.inst     84180999                       # number of overall MSHR miss ticks (Tick)
system.cpu.icache.overallMshrMissLatency::total     84180999                       # number of overall MSHR miss ticks (Tick)
system.cpu.icache.demandMshrMissRate::cpu.inst     0.003254                       # mshr miss ratio for demand accesses (Ratio)
system.cpu.icache.demandMshrMissRate::total     0.003254                       # mshr miss ratio for demand accesses (Ratio)
system.cpu.icache.overallMshrMissRate::cpu.inst     0.003254                       # mshr miss ratio for overall accesses (Ratio)
system.cpu.icache.overallMshrMissRate::total     0.003254                       # mshr miss ratio for overall accesses (Ratio)
system.cpu.icache.demandAvgMshrMissLatency::cpu.inst 85549.795732                       # average overall mshr miss latency ((Tick/Count))
system.cpu.icache.demandAvgMshrMissLatency::total 85549.795732                       # average overall mshr miss latency ((Tick/Count))
system.cpu.icache.overallAvgMshrMissLatency::cpu.inst 85549.795732                       # average overall mshr miss latency ((Tick/Count))
system.cpu.icache.overallAvgMshrMissLatency::total 85549.795732                       # average overall mshr miss latency ((Tick/Count))
system.cpu.icache.replacements                    148                       # number of replacements (Count)
system.cpu.icache.ReadReq.hits::cpu.inst       301077                       # number of ReadReq hits (Count)
system.cpu.icache.ReadReq.hits::total          301077                       # number of ReadReq hits (Count)
system.cpu.icache.ReadReq.misses::cpu.inst         1329                       # number of ReadReq misses (Count)
system.cpu.icache.ReadReq.misses::total          1329                       # number of ReadReq misses (Count)
system.cpu.icache.ReadReq.missLatency::cpu.inst    103083999                       # number of ReadReq miss ticks (Tick)
system.cpu.icache.ReadReq.missLatency::total    103083999                       # number of ReadReq miss ticks (Tick)
system.cpu.icache.ReadReq.accesses::cpu.inst       302406                       # number of ReadReq accesses(hits+misses) (Count)
system.cpu.icache.ReadReq.accesses::total       302406                       # number of ReadReq accesses(hits+misses) (Count)
system.cpu.icache.ReadReq.missRate::cpu.inst     0.004395                       # miss rate for ReadReq accesses (Ratio)
system.cpu.icache.ReadReq.missRate::total     0.004395                       # miss rate for ReadReq accesses (Ratio)
system.cpu.icache.ReadReq.avgMissLatency::cpu.inst 77565.085779                       # average ReadReq miss latency ((Tick/Count))
system.cpu.icache.ReadReq.avgMissLatency::total 77565.085779                       # average ReadReq miss latency ((Tick/Count))
system.cpu.icache.ReadReq.mshrHits::cpu.inst          345                       # number of ReadReq MSHR hits (Count)
system.cpu.icache.ReadReq.mshrHits::total          345                       # number of ReadReq MSHR hits (Count)
system.cpu.icache.ReadReq.mshrMisses::cpu.inst          984                       # number of ReadReq MSHR misses (Count)
system.cpu.icache.ReadReq.mshrMisses::total          984                       # number of ReadReq MSHR misses (Count)
system.cpu.icache.ReadReq.mshrMissLatency::cpu.inst     84180999                       # number of ReadReq MSHR miss ticks (Tick)
system.cpu.icache.ReadReq.mshrMissLatency::total     84180999                       # number of ReadReq MSHR miss ticks (Tick)
system.cpu.icache.ReadReq.mshrMissRate::cpu.inst     0.003254                       # mshr miss rate for ReadReq accesses (Ratio)
system.cpu.icache.ReadReq.mshrMissRate::total     0.003254                       # mshr miss rate for ReadReq accesses (Ratio)
system.cpu.icache.ReadReq.avgMshrMissLatency::cpu.inst 85549.795732                       # average ReadReq mshr miss latency ((Tick/Count))
system.cpu.icache.ReadReq.avgMshrMissLatency::total 85549.795732                       # average ReadReq mshr miss latency ((Tick/Count))
system.cpu.icache.power_state.pwrStateResidencyTicks::UNDEFINED 395053313000                       # Cumulative time (in ticks) in various power states (Tick)
system.cpu.icache.prefetcher.demandMshrMisses          984                       # demands not covered by prefetchs (Count)
system.cpu.icache.prefetcher.pfIssued               0                       # number of hwpf issued (Count)
system.cpu.icache.prefetcher.pfUseful               0                       # number of useful prefetch (Count)
system.cpu.icache.prefetcher.pfUsefulButMiss            0                       # number of hit on prefetch but cache block is not in an usable state (Count)
system.cpu.icache.prefetcher.accuracy             nan                       # accuracy of the prefetcher (Count)
system.cpu.icache.prefetcher.coverage               0                       # coverage brought by this prefetcher (Count)
system.cpu.icache.prefetcher.pfHitInCache            0                       # number of prefetches hitting in cache (Count)
system.cpu.icache.prefetcher.pfHitInMSHR            0                       # number of prefetches hitting in a MSHR (Count)
system.cpu.icache.prefetcher.pfHitInWB              0                       # number of prefetches hit in the Write Buffer (Count)
system.cpu.icache.prefetcher.pfLate                 0                       # number of late prefetches (hitting in cache, MSHR or WB) (Count)
system.cpu.icache.prefetcher.pfIdentified            0                       # number of prefetch candidates identified (Count)
system.cpu.icache.prefetcher.pfBufferHit            0                       # number of redundant prefetches already in prefetch queue (Count)
system.cpu.icache.prefetcher.pfInCache              0                       # number of redundant prefetches already in cache/mshr dropped (Count)
system.cpu.icache.prefetcher.pfRemovedDemand            0                       # number of prefetches dropped due to a demand for the same address (Count)
system.cpu.icache.prefetcher.pfRemovedFull            0                       # number of prefetches dropped due to prefetch queue size (Count)
system.cpu.icache.prefetcher.pfSpanPage             0                       # number of prefetches that crossed the page (Count)
system.cpu.icache.prefetcher.pfUsefulSpanPage            0                       # number of prefetches that is useful and crossed the page (Count)
system.cpu.icache.prefetcher.power_state.pwrStateResidencyTicks::UNDEFINED 395053313000                       # Cumulative time (in ticks) in various power states (Tick)
system.cpu.icache.tags.tagsInUse           590.776445                       # Average ticks per tags in use ((Tick/Count))
system.cpu.icache.tags.totalRefs               302061                       # Total number of references to valid blocks. (Count)
system.cpu.icache.tags.sampledRefs                984                       # Sample count of references to valid blocks. (Count)
system.cpu.icache.tags.avgRefs             306.972561                       # Average number of references to valid blocks. ((Count/Count))
system.cpu.icache.tags.warmupTick               88000                       # The tick when the warmup percentage was hit. (Tick)
system.cpu.icache.tags.occupancies::cpu.inst   590.776445                       # Average occupied blocks per tick, per requestor ((Count/Tick))
system.cpu.icache.tags.avgOccs::cpu.inst     0.576930                       # Average percentage of cache occupancy ((Ratio/Tick))
system.cpu.icache.tags.avgOccs::total        0.576930                       # Average percentage of cache occupancy ((Ratio/Tick))
system.cpu.icache.tags.occupanciesTaskId::1024          836                       # Occupied blocks per task id (Count)
system.cpu.icache.tags.ageTaskId_1024::4          836                       # Occupied blocks per task id, per block age (Count)
system.cpu.icache.tags.ratioOccsTaskId::1024     0.816406                       # Ratio of occupied blocks and all blocks, per task id (Ratio)
system.cpu.icache.tags.tagAccesses            1210608                       # Number of tag accesses (Count)
system.cpu.icache.tags.dataAccesses           1210608                       # Number of data accesses (Count)
system.cpu.icache.tags.power_state.pwrStateResidencyTicks::UNDEFINED 395053313000                       # Cumulative time (in ticks) in various power states (Tick)
system.cpu.iew.idleCycles                           0                       # Number of cycles IEW is idle (Cycle)
system.cpu.iew.squashCycles                     47210                       # Number of cycles IEW is squashing (Cycle)
system.cpu.iew.blockCycles                   20355734                       # Number of cycles IEW is blocking (Cycle)
system.cpu.iew.unblockCycles                218969329                       # Number of cycles IEW is unblocking (Cycle)
system.cpu.iew.dispatchedInsts              100809659                       # Number of instructions dispatched to IQ (Count)
system.cpu.iew.dispSquashedInsts                   79                       # Number of squashed instructions skipped by dispatch (Count)
system.cpu.iew.dispLoadInsts                  1380942                       # Number of dispatched load instructions (Count)
system.cpu.iew.dispStoreInsts                54853486                       # Number of dispatched store instructions (Count)
system.cpu.iew.dispNonSpecInsts                   227                       # Number of dispatched non-speculative instructions (Count)
system.cpu.iew.iqFullEvents                      8922                       # Number of times the IQ has become full, causing a stall (Count)
system.cpu.iew.lsqFullEvents                218946128                       # Number of times the LSQ has become full, causing a stall (Count)
system.cpu.iew.memOrderViolationEvents            553                       # Number of memory order violations (Count)
[...]
system.mem_ctrl.dram.numWrites::writebacks      6477517                       # Number of write requests responded to by this memory (Count)
system.mem_ctrl.dram.numWrites::total         6477517                       # Number of write requests responded to by this memory (Count)
system.mem_ctrl.dram.bwRead::cpu.inst          159249                       # Total read bandwidth from this memory ((Byte/Second))
system.mem_ctrl.dram.bwRead::cpu.data       523559675                       # Total read bandwidth from this memory ((Byte/Second))
system.mem_ctrl.dram.bwRead::cpu.dcache.prefetcher    525088663                       # Total read bandwidth from this memory ((Byte/Second))
system.mem_ctrl.dram.bwRead::l2cache.prefetcher      1451551                       # Total read bandwidth from this memory ((Byte/Second))
system.mem_ctrl.dram.bwRead::total         1050259138                       # Total read bandwidth from this memory ((Byte/Second))
system.mem_ctrl.dram.bwInstRead::cpu.inst       159249                       # Instruction read bandwidth from this memory ((Byte/Second))
system.mem_ctrl.dram.bwInstRead::total         159249                       # Instruction read bandwidth from this memory ((Byte/Second))
system.mem_ctrl.dram.bwWrite::writebacks   1049380107                       # Write bandwidth from this memory ((Byte/Second))
system.mem_ctrl.dram.bwWrite::total        1049380107                       # Write bandwidth from this memory ((Byte/Second))
system.mem_ctrl.dram.bwTotal::writebacks   1049380107                       # Total bandwidth to/from this memory ((Byte/Second))
system.mem_ctrl.dram.bwTotal::cpu.inst         159249                       # Total bandwidth to/from this memory ((Byte/Second))
system.mem_ctrl.dram.bwTotal::cpu.data      523559675                       # Total bandwidth to/from this memory ((Byte/Second))
system.mem_ctrl.dram.bwTotal::cpu.dcache.prefetcher    525088663                       # Total bandwidth to/from this memory ((Byte/Second))
system.mem_ctrl.dram.bwTotal::l2cache.prefetcher      1451551                       # Total bandwidth to/from this memory ((Byte/Second))
system.mem_ctrl.dram.bwTotal::total        2099639245                       # Total bandwidth to/from this memory ((Byte/Second))
system.mem_ctrl.dram.readBursts               6482943                       # Number of DRAM read bursts (Count)
system.mem_ctrl.dram.writeBursts              6477496                       # Number of DRAM write bursts (Count)
system.mem_ctrl.dram.perBankRdBursts::0        405127                       # Per bank write bursts (Count)
system.mem_ctrl.dram.perBankRdBursts::1        405066                       # Per bank write bursts (Count)
system.mem_ctrl.dram.perBankRdBursts::2        405053                       # Per bank write bursts (Count)
system.mem_ctrl.dram.perBankRdBursts::3        405235                       # Per bank write bursts (Count)
system.mem_ctrl.dram.perBankRdBursts::4        405292                       # Per bank write bursts (Count)
system.mem_ctrl.dram.perBankRdBursts::5        405245                       # Per bank write bursts (Count)
system.mem_ctrl.dram.perBankRdBursts::6        405185                       # Per bank write bursts (Count)
system.mem_ctrl.dram.perBankRdBursts::7        405038                       # Per bank write bursts (Count)
system.mem_ctrl.dram.perBankRdBursts::8        404894                       # Per bank write bursts (Count)
system.mem_ctrl.dram.perBankRdBursts::9        405170                       # Per bank write bursts (Count)
system.mem_ctrl.dram.perBankRdBursts::10       405275                       # Per bank write bursts (Count)
system.mem_ctrl.dram.perBankRdBursts::11       405338                       # Per bank write bursts (Count)
system.mem_ctrl.dram.perBankRdBursts::12       405139                       # Per bank write bursts (Count)
system.mem_ctrl.dram.perBankRdBursts::13       405381                       # Per bank write bursts (Count)
system.mem_ctrl.dram.perBankRdBursts::14       405252                       # Per bank write bursts (Count)
system.mem_ctrl.dram.perBankRdBursts::15       405253                       # Per bank write bursts (Count)
system.mem_ctrl.dram.perBankWrBursts::0        404736                       # Per bank write bursts (Count)
system.mem_ctrl.dram.perBankWrBursts::1        404748                       # Per bank write bursts (Count)
system.mem_ctrl.dram.perBankWrBursts::2        404764                       # Per bank write bursts (Count)
system.mem_ctrl.dram.perBankWrBursts::3        404865                       # Per bank write bursts (Count)
system.mem_ctrl.dram.perBankWrBursts::4        404880                       # Per bank write bursts (Count)
system.mem_ctrl.dram.perBankWrBursts::5        404863                       # Per bank write bursts (Count)
system.mem_ctrl.dram.perBankWrBursts::6        404882                       # Per bank write bursts (Count)
system.mem_ctrl.dram.perBankWrBursts::7        404656                       # Per bank write bursts (Count)
system.mem_ctrl.dram.perBankWrBursts::8        404592                       # Per bank write bursts (Count)
system.mem_ctrl.dram.perBankWrBursts::9        404815                       # Per bank write bursts (Count)
system.mem_ctrl.dram.perBankWrBursts::10       404936                       # Per bank write bursts (Count)
system.mem_ctrl.dram.perBankWrBursts::11       405028                       # Per bank write bursts (Count)
system.mem_ctrl.dram.perBankWrBursts::12       404836                       # Per bank write bursts (Count)
system.mem_ctrl.dram.perBankWrBursts::13       405046                       # Per bank write bursts (Count)
system.mem_ctrl.dram.perBankWrBursts::14       404931                       # Per bank write bursts (Count)
system.mem_ctrl.dram.perBankWrBursts::15       404918                       # Per bank write bursts (Count)
system.mem_ctrl.dram.totQLat             117140563274                       # Total ticks spent queuing (Tick)
system.mem_ctrl.dram.totBusLat            32414715000                       # Total ticks spent in databus transfers (Tick)
system.mem_ctrl.dram.totMemAccLat        238695744524                       # Total ticks spent from burst creation until serviced by the DRAM (Tick)
system.mem_ctrl.dram.avgQLat                 18069.04                       # Average queueing delay per DRAM burst ((Tick/Count))
system.mem_ctrl.dram.avgBusLat                5000.00                       # Average bus latency per DRAM burst ((Tick/Count))
system.mem_ctrl.dram.avgMemAccLat            36819.04                       # Average memory access latency per DRAM burst ((Tick/Count))
system.mem_ctrl.dram.readRowHits              5997995                       # Number of row buffer hits during reads (Count)
system.mem_ctrl.dram.writeRowHits             6011953                       # Number of row buffer hits during writes (Count)
system.mem_ctrl.dram.readRowHitRate             92.52                       # Row buffer hit rate for reads (Ratio)
system.mem_ctrl.dram.writeRowHitRate            92.81                       # Row buffer hit rate for writes (Ratio)
system.mem_ctrl.dram.bytesPerActivate::samples       950490                       # Bytes accessed per row activation (Byte)
system.mem_ctrl.dram.bytesPerActivate::mean   872.673253                       # Bytes accessed per row activation (Byte)
system.mem_ctrl.dram.bytesPerActivate::gmean   780.495250                       # Bytes accessed per row activation (Byte)
system.mem_ctrl.dram.bytesPerActivate::stdev   280.537221                       # Bytes accessed per row activation (Byte)
system.mem_ctrl.dram.bytesPerActivate::0-127        24775      2.61%      2.61% # Bytes accessed per row activation (Byte)
system.mem_ctrl.dram.bytesPerActivate::128-255        23589      2.48%      5.09% # Bytes accessed per row activation (Byte)
system.mem_ctrl.dram.bytesPerActivate::256-383        30031      3.16%      8.25% # Bytes accessed per row activation (Byte)
system.mem_ctrl.dram.bytesPerActivate::384-511        61173      6.44%     14.68% # Bytes accessed per row activation (Byte)
system.mem_ctrl.dram.bytesPerActivate::512-639        51786      5.45%     20.13% # Bytes accessed per row activation (Byte)
system.mem_ctrl.dram.bytesPerActivate::640-767        25479      2.68%     22.81% # Bytes accessed per row activation (Byte)
system.mem_ctrl.dram.bytesPerActivate::768-895        11234      1.18%     23.99% # Bytes accessed per row activation (Byte)
system.mem_ctrl.dram.bytesPerActivate::896-1023        30031      3.16%     27.15% # Bytes accessed per row activation (Byte)
system.mem_ctrl.dram.bytesPerActivate::1024-1151       692392     72.85%    100.00% # Bytes accessed per row activation (Byte)
system.mem_ctrl.dram.bytesPerActivate::total       950490                       # Bytes accessed per row activation (Byte)
system.mem_ctrl.dram.bytesRead              414908352                       # Total bytes read (Byte)
system.mem_ctrl.dram.bytesWritten           414559744                       # Total bytes written (Byte)
system.mem_ctrl.dram.avgRdBW              1050.259138                       # Average DRAM read bandwidth in MiBytes/s ((Byte/Second))
system.mem_ctrl.dram.avgWrBW              1049.376705                       # Average DRAM write bandwidth in MiBytes/s ((Byte/Second))
system.mem_ctrl.dram.peakBW                  12800.00                       # Theoretical peak bandwidth in MiByte/s ((Byte/Second))
system.mem_ctrl.dram.busUtil                    16.40                       # Data bus utilization in percentage (Ratio)
system.mem_ctrl.dram.busUtilRead                 8.21                       # Data bus utilization in percentage for reads (Ratio)
system.mem_ctrl.dram.busUtilWrite                8.20                       # Data bus utilization in percentage for writes (Ratio)
system.mem_ctrl.dram.pageHitRate                92.67                       # Row buffer hit rate, read and write combined (Ratio)
system.mem_ctrl.dram.power_state.pwrStateResidencyTicks::UNDEFINED 395053313000                       # Cumulative time (in ticks) in various power states (Tick)
system.mem_ctrl.dram.rank0.actEnergy       3392321100                       # Energy for activate commands per rank (pJ) (Joule)
system.mem_ctrl.dram.rank0.preEnergy       1803061425                       # Energy for precharge commands per rank (pJ) (Joule)
system.mem_ctrl.dram.rank0.readEnergy     23142460740                       # Energy for read commands per rank (pJ) (Joule)
system.mem_ctrl.dram.rank0.writeEnergy    16904416680                       # Energy for write commands per rank (pJ) (Joule)
system.mem_ctrl.dram.rank0.refreshEnergy 31184989680.000004                       # Energy for refresh commands per rank (pJ) (Joule)
system.mem_ctrl.dram.rank0.actBackEnergy  98802154980                       # Energy for active background per rank (pJ) (Joule)
system.mem_ctrl.dram.rank0.preBackEnergy  68498657760                       # Energy for precharge background per rank (pJ) (Joule)
system.mem_ctrl.dram.rank0.actPowerDownEnergy            0                       # Energy for active power-down per rank (pJ) (Joule)
system.mem_ctrl.dram.rank0.prePowerDownEnergy            0                       # Energy for precharge power-down per rank (pJ) (Joule)
system.mem_ctrl.dram.rank0.selfRefreshEnergy            0                       # Energy for self refresh per rank (pJ) (Joule)
system.mem_ctrl.dram.rank0.totalEnergy   243728062365                       # Total energy per rank (pJ) (Joule)
system.mem_ctrl.dram.rank0.averagePower    616.949800                       # Core power per rank (mW) (Watt)
system.mem_ctrl.dram.rank0.totalIdleTime            0                       # Total Idle time Per DRAM Rank (Tick)
system.mem_ctrl.dram.rank0.pwrStateTime::IDLE 175308791310                       # Time in different power states (Tick)
system.mem_ctrl.dram.rank0.pwrStateTime::REF  13191620000                       # Time in different power states (Tick)
system.mem_ctrl.dram.rank0.pwrStateTime::SREF            0                       # Time in different power states (Tick)
system.mem_ctrl.dram.rank0.pwrStateTime::PRE_PDN            0                       # Time in different power states (Tick)
system.mem_ctrl.dram.rank0.pwrStateTime::ACT 206552901690                       # Time in different power states (Tick)
system.mem_ctrl.dram.rank0.pwrStateTime::ACT_PDN            0                       # Time in different power states (Tick)
system.mem_ctrl.dram.rank1.actEnergy       3394184640                       # Energy for activate commands per rank (pJ) (Joule)
system.mem_ctrl.dram.rank1.preEnergy       1804048125                       # Energy for precharge commands per rank (pJ) (Joule)
system.mem_ctrl.dram.rank1.readEnergy     23145752280                       # Energy for read commands per rank (pJ) (Joule)
system.mem_ctrl.dram.rank1.writeEnergy    16908112440                       # Energy for write commands per rank (pJ) (Joule)
system.mem_ctrl.dram.rank1.refreshEnergy 31184989680.000004                       # Energy for refresh commands per rank (pJ) (Joule)
system.mem_ctrl.dram.rank1.actBackEnergy  98821773810                       # Energy for active background per rank (pJ) (Joule)
system.mem_ctrl.dram.rank1.preBackEnergy  68482136640                       # Energy for precharge background per rank (pJ) (Joule)
system.mem_ctrl.dram.rank1.actPowerDownEnergy            0                       # Energy for active power-down per rank (pJ) (Joule)
system.mem_ctrl.dram.rank1.prePowerDownEnergy            0                       # Energy for precharge power-down per rank (pJ) (Joule)
system.mem_ctrl.dram.rank1.selfRefreshEnergy            0                       # Energy for self refresh per rank (pJ) (Joule)
system.mem_ctrl.dram.rank1.totalEnergy   243740997615                       # Total energy per rank (pJ) (Joule)
system.mem_ctrl.dram.rank1.averagePower    616.982543                       # Core power per rank (mW) (Watt)
system.mem_ctrl.dram.rank1.totalIdleTime            0                       # Total Idle time Per DRAM Rank (Tick)
system.mem_ctrl.dram.rank1.pwrStateTime::IDLE 175273212137                       # Time in different power states (Tick)
system.mem_ctrl.dram.rank1.pwrStateTime::REF  13191620000                       # Time in different power states (Tick)
system.mem_ctrl.dram.rank1.pwrStateTime::SREF            0                       # Time in different power states (Tick)
system.mem_ctrl.dram.rank1.pwrStateTime::PRE_PDN            0                       # Time in different power states (Tick)
system.mem_ctrl.dram.rank1.pwrStateTime::ACT 206588480863                       # Time in different power states (Tick)
system.mem_ctrl.dram.rank1.pwrStateTime::ACT_PDN            0                       # Time in different power states (Tick)
system.mem_ctrl.power_state.pwrStateResidencyTicks::UNDEFINED 395053313000                       # Cumulative time (in ticks) in various power states (Tick)
system.membus.transDist::ReadResp             3251508                       # Transaction distribution (Count)
system.membus.transDist::WritebackDirty       6477517                       # Transaction distribution (Count)
system.membus.transDist::CleanEvict               493                       # Transaction distribution (Count)
system.membus.transDist::ReadExReq            3231434                       # Transaction distribution (Count)
system.membus.transDist::ReadExResp           3231434                       # Transaction distribution (Count)
system.membus.transDist::ReadSharedReq        3251509                       # Transaction distribution (Count)
system.membus.pktCount_system.l2cache.mem_side_port::system.mem_ctrl.port     19443895                       # Packet count per connected requestor and responder (Count)
system.membus.pktCount_system.l2cache.mem_side_port::total     19443895                       # Packet count per connected requestor and responder (Count)
system.membus.pktCount::total                19443895                       # Packet count per connected requestor and responder (Count)
system.membus.pktSize_system.l2cache.mem_side_port::system.mem_ctrl.port    829469376                       # Cumulative packet size per connected requestor and responder (Byte)
system.membus.pktSize_system.l2cache.mem_side_port::total    829469376                       # Cumulative packet size per connected requestor and responder (Byte)
system.membus.pktSize::total                829469376                       # Cumulative packet size per connected requestor and responder (Byte)
system.membus.snoops                                0                       # Total snoops (Count)
system.membus.snoopTraffic                          0                       # Total snoop traffic (Byte)
system.membus.snoopFanout::samples            6482943                       # Request fanout histogram (Count)
system.membus.snoopFanout::mean                     0                       # Request fanout histogram (Count)
system.membus.snoopFanout::stdev                    0                       # Request fanout histogram (Count)
system.membus.snoopFanout::underflows               0      0.00%      0.00% # Request fanout histogram (Count)
system.membus.snoopFanout::0                  6482943    100.00%    100.00% # Request fanout histogram (Count)
system.membus.snoopFanout::1                        0      0.00%    100.00% # Request fanout histogram (Count)
system.membus.snoopFanout::overflows                0      0.00%    100.00% # Request fanout histogram (Count)
system.membus.snoopFanout::min_value                0                       # Request fanout histogram (Count)
system.membus.snoopFanout::max_value                0                       # Request fanout histogram (Count)
system.membus.snoopFanout::total              6482943                       # Request fanout histogram (Count)
system.membus.power_state.pwrStateResidencyTicks::UNDEFINED 395053313000                       # Cumulative time (in ticks) in various power states (Tick)
system.membus.reqLayer2.occupancy         38873517754                       # Layer occupancy (ticks) (Tick)
system.membus.reqLayer2.utilization               0.1                       # Layer utilization (Ratio)
system.membus.respLayer0.occupancy        33656192500                       # Layer occupancy (ticks) (Tick)
system.membus.respLayer0.utilization              0.1                       # Layer utilization (Ratio)
system.membus.snoop_filter.totRequests       12960953                       # Total number of requests made to the snoop filter. (Count)
system.membus.snoop_filter.hitSingleRequests      6478010                       # Number of requests hitting in the snoop filter with a single holder of the requested data. (Count)
system.membus.snoop_filter.hitMultiRequests            0                       # Number of requests hitting in the snoop filter with multiple (>1) holders of the requested data. (Count)
system.membus.snoop_filter.totSnoops                0                       # Total number of snoops made to the snoop filter. (Count)
system.membus.snoop_filter.hitSingleSnoops            0                       # Number of snoops hitting in the snoop filter with a single holder of the requested data. (Count)
system.membus.snoop_filter.hitMultiSnoops            0                       # Number of snoops hitting in the snoop filter with multiple (>1) holders of the requested data. (Count)
system.workload.inst.arm                            0                       # number of arm instructions executed (Count)
system.workload.inst.quiesce                        0                       # number of quiesce instructions executed (Count)

---------- End Simulation Statistics   ----------
