
---------- Begin Simulation Statistics ----------
simSeconds                                   0.397806                       # Number of seconds simulated (Second)
simTicks                                 397805596000                       # Number of ticks simulated (Tick)
finalTick                                397805596000                       # Number of ticks from beginning of simulation (restored from checkpoints and never reset) (Tick)
simFreq                                  1000000000000                       # The number of ticks per simulated second ((Tick/Second))
hostSeconds                                    898.51                       # Real time elapsed on the host (Second)
hostTickRate                                442740864                       # The number of ticks simulated per host second (ticks/s) ((Tick/Second))
hostMemory                                    8529800                       # Number of bytes of host memory used (Byte)
simInsts                                     50000000                       # Number of instructions simulated (Count)
simOps                                       95981340                       # Number of ops (including micro ops) simulated (Count)
hostInstRate                                    55648                       # Simulator instruction rate (inst/s) ((Count/Second))
hostOpRate                                     106823                       # Simulator op (including micro ops) rate (op/s) ((Count/Second))
system.clk_domain.clock                          1000                       # Clock period in ticks (Tick)
system.clk_domain.voltage_domain.voltage            1                       # Voltage in Volts (Volt)
system.cpu.numCycles                        397805605                       # Number of cpu cycles simulated (Cycle)
system.cpu.numWorkItemsStarted                      0                       # Number of work items this cpu started (Count)
system.cpu.numWorkItemsCompleted                    0                       # Number of work items this cpu completed (Count)
system.cpu.instsAdded                       100807123                       # Number of instructions added to the IQ (excludes non-spec) (Count)
system.cpu.nonSpecInstsAdded                      695                       # Number of non-speculative instructions added to the IQ (Count)
system.cpu.instsIssued                      100738236                       # Number of instructions issued (Count)
system.cpu.squashedInstsIssued                    345                       # Number of squashed instructions issued (Count)
system.cpu.squashedInstsExamined              4826470                       # Number of squashed instructions iterated over during squash; mainly for profiling (Count)
system.cpu.squashedOperandsExamined          11583875                       # Number of squashed operands that are examined and possibly removed from graph (Count)
system.cpu.squashedNonSpecRemoved                 647                       # Number of squashed non-spec instructions that were removed (Count)
system.cpu.numIssuedDist::samples           397783100                       # Number of insts issued each cycle (Count)
system.cpu.numIssuedDist::mean               0.253249                       # Number of insts issued each cycle (Count)
system.cpu.numIssuedDist::stdev              0.723200                       # Number of insts issued each cycle (Count)
system.cpu.numIssuedDist::underflows                0      0.00%      0.00% # Number of insts issued each cycle (Count)
system.cpu.numIssuedDist::0                 331387300     83.31%     83.31% # Number of insts issued each cycle (Count)
system.cpu.numIssuedDist::1                  50843302     12.78%     96.09% # Number of insts issued each cycle (Count)
system.cpu.numIssuedDist::2                   5270740      1.33%     97.42% # Number of insts issued each cycle (Count)
system.cpu.numIssuedDist::3                   4627414      1.16%     98.58% # Number of insts issued each cycle (Count)
system.cpu.numIssuedDist::4                   4113643      1.03%     99.61% # Number of insts issued each cycle (Count)
system.cpu.numIssuedDist::5                    697454      0.18%     99.79% # Number of insts issued each cycle (Count)
system.cpu.numIssuedDist::6                    506811      0.13%     99.92% # Number of insts issued each cycle (Count)
system.cpu.numIssuedDist::7                    202984      0.05%     99.97% # Number of insts issued each cycle (Count)
system.cpu.numIssuedDist::8                    133452      0.03%    100.00% # Number of insts issued each cycle (Count)
system.cpu.numIssuedDist::overflows                 0      0.00%    100.00% # Number of insts issued each cycle (Count)
system.cpu.numIssuedDist::min_value                 0                       # Number of insts issued each cycle (Count)
system.cpu.numIssuedDist::max_value                 8                       # Number of insts issued each cycle (Count)
system.cpu.numIssuedDist::total             397783100                       # Number of insts issued each cycle (Count)
system.cpu.statFuBusy::No_OpClass                   0      0.00%      0.00% # attempts to use FU when none available (Count)
system.cpu.statFuBusy::IntAlu                   20312      1.08%      1.08% # attempts to use FU when none available (Count)
system.cpu.statFuBusy::IntMult                      0      0.00%      1.08% # attempts to use FU when none available (Count)
system.cpu.statFuBusy::IntDiv                       0      0.00%      1.08% # attempts to use FU when none available (Count)
system.cpu.statFuBusy::FloatAdd                     0      0.00%      1.08% # attempts to use FU when none available (Count)
system.cpu.statFuBusy::FloatCmp                     0      0.00%      1.08% # attempts to use FU when none available (Count)
system.cpu.statFuBusy::FloatCvt                     0      0.00%      1.08% # attempts to use FU when none available (Count)
system.cpu.statFuBusy::FloatMult                    0      0.00%      1.08% # attempts to use FU when none available (Count)
system.cpu.statFuBusy::FloatMultAcc                 0      0.00%      1.08% # attempts to use FU when none available (Count)
system.cpu.statFuBusy::FloatDiv                     0      0.00%      1.08% # attempts to use FU when none available (Count)
system.cpu.statFuBusy::FloatMisc                    0      0.00%      1.08% # attempts to use FU when none available (Count)
system.cpu.statFuBusy::FloatSqrt                    0      0.00%      1.08% # attempts to use FU when none available (Count)
system.cpu.statFuBusy::SimdAdd                      0      0.00%      1.08% # attempts to use FU when none available (Count)
system.cpu.statFuBusy::SimdAddAcc                   0      0.00%      1.08% # attempts to use FU when none available (Count)
system.cpu.statFuBusy::SimdAlu                     35      0.00%      1.08% # attempts to use FU when none available (Count)
system.cpu.statFuBusy::SimdCmp                      0      0.00%      1.08% # attempts to use FU when none available (Count)
system.cpu.statFuBusy::SimdCvt                      4      0.00%      1.08% # attempts to use FU when none available (Count)
system.cpu.statFuBusy::SimdMisc                     0      0.00%      1.08% # attempts to use FU when none available (Count)
system.cpu.statFuBusy::SimdMult                     0      0.00%      1.08% # attempts to use FU when none available (Count)
system.cpu.statFuBusy::SimdMultAcc                  0      0.00%      1.08% # attempts to use FU when none available (Count)
system.cpu.statFuBusy::SimdShift                    0      0.00%      1.08% # attempts to use FU when none available (Count)
system.cpu.statFuBusy::SimdShiftAcc                 0      0.00%      1.08% # attempts to use FU when none available (Count)
system.cpu.statFuBusy::SimdDiv                      0      0.00%      1.08% # attempts to use FU when none available (Count)
system.cpu.statFuBusy::SimdSqrt                     0      0.00%      1.08% # attempts to use FU when none available (Count)
system.cpu.statFuBusy::SimdFloatAdd                 0      0.00%      1.08% # attempts to use FU when none available (Count)
system.cpu.statFuBusy::SimdFloatAlu                 0      0.00%      1.08% # attempts to use FU when none available (Count)
system.cpu.statFuBusy::SimdFloatCmp                 0      0.00%      1.08% # attempts to use FU when none available (Count)
system.cpu.statFuBusy::SimdFloatCvt                 0      0.00%      1.08% # attempts to use FU when none available (Count)
system.cpu.statFuBusy::SimdFloatDiv                 0      0.00%      1.08% # attempts to use FU when none available (Count)
system.cpu.statFuBusy::SimdFloatMisc                0      0.00%      1.08% # attempts to use FU when none available (Count)
system.cpu.statFuBusy::SimdFloatMult                0      0.00%      1.08% # attempts to use FU when none available (Count)
system.cpu.statFuBusy::SimdFloatMultAcc             0      0.00%      1.08% # attempts to use FU when none available (Count)
system.cpu.statFuBusy::SimdFloatSqrt                0      0.00%      1.08% # attempts to use FU when none available (Count)
system.cpu.statFuBusy::SimdReduceAdd                0      0.00%      1.08% # attempts to use FU when none available (Count)
system.cpu.statFuBusy::SimdReduceAlu                0      0.00%      1.08% # attempts to use FU when none available (Count)
system.cpu.statFuBusy::SimdReduceCmp                0      0.00%      1.08% # attempts to use FU when none available (Count)
system.cpu.statFuBusy::SimdFloatReduceAdd            0      0.00%      1.08% # attempts to use FU when none available (Count)
system.cpu.statFuBusy::SimdFloatReduceCmp            0      0.00%      1.08% # attempts to use FU when none available (Count)
system.cpu.statFuBusy::SimdAes                      0      0.00%      1.08% # attempts to use FU when none available (Count)
system.cpu.statFuBusy::SimdAesMix                   0      0.00%      1.08% # attempts to use FU when none available (Count)
system.cpu.statFuBusy::SimdSha1Hash                 0      0.00%      1.08% # attempts to use FU when none available (Count)
system.cpu.statFuBusy::SimdSha1Hash2                0      0.00%      1.08% # attempts to use FU when none available (Count)
system.cpu.statFuBusy::SimdSha256Hash               0      0.00%      1.08% # attempts to use FU when none available (Count)
system.cpu.statFuBusy::SimdSha256Hash2              0      0.00%      1.08% # attempts to use FU when none available (Count)
system.cpu.statFuBusy::SimdShaSigma2                0      0.00%      1.08% # attempts to use FU when none available (Count)
system.cpu.statFuBusy::SimdShaSigma3                0      0.00%      1.08% # attempts to use FU when none available (Count)
system.cpu.statFuBusy::SimdPredAlu                  0      0.00%      1.08% # attempts to use FU when none available (Count)
system.cpu.statFuBusy::MemRead                  60883      3.24%      4.32% # attempts to use FU when none available (Count)
system.cpu.statFuBusy::MemWrite                   444      0.02%      4.34% # attempts to use FU when none available (Count)
system.cpu.statFuBusy::FloatMemRead                23      0.00%      4.35% # attempts to use FU when none available (Count)
system.cpu.statFuBusy::FloatMemWrite          1798499     95.65%    100.00% # attempts to use FU when none available (Count)
system.cpu.statFuBusy::IprAccess                    0      0.00%    100.00% # attempts to use FU when none available (Count)
system.cpu.statFuBusy::InstPrefetch                 0      0.00%    100.00% # attempts to use FU when none available (Count)
system.cpu.statIssuedInstType_0::No_OpClass          909      0.00%      0.00% # Number of instructions issued per FU type, per thread (Count)
system.cpu.statIssuedInstType_0::IntAlu      44521191     44.19%     44.20% # Number of instructions issued per FU type, per thread (Count)
system.cpu.statIssuedInstType_0::IntMult          742      0.00%     44.20% # Number of instructions issued per FU type, per thread (Count)
system.cpu.statIssuedInstType_0::IntDiv            26      0.00%     44.20% # Number of instructions issued per FU type, per thread (Count)
system.cpu.statIssuedInstType_0::FloatAdd          320      0.00%     44.20% # Number of instructions issued per FU type, per thread (Count)
system.cpu.statIssuedInstType_0::FloatCmp            0      0.00%     44.20% # Number of instructions issued per FU type, per thread (Count)
system.cpu.statIssuedInstType_0::FloatCvt            0      0.00%     44.20% # Number of instructions issued per FU type, per thread (Count)
system.cpu.statIssuedInstType_0::FloatMult            0      0.00%     44.20% # Number of instructions issued per FU type, per thread (Count)
system.cpu.statIssuedInstType_0::FloatMultAcc            0      0.00%     44.20% # Number of instructions issued per FU type, per thread (Count)
system.cpu.statIssuedInstType_0::FloatDiv            0      0.00%     44.20% # Number of instructions issued per FU type, per thread (Count)
system.cpu.statIssuedInstType_0::FloatMisc            0      0.00%     44.20% # Number of instructions issued per FU type, per thread (Count)
system.cpu.statIssuedInstType_0::FloatSqrt            0      0.00%     44.20% # Number of instructions issued per FU type, per thread (Count)
system.cpu.statIssuedInstType_0::SimdAdd            0      0.00%     44.20% # Number of instructions issued per FU type, per thread (Count)
system.cpu.statIssuedInstType_0::SimdAddAcc            0      0.00%     44.20% # Number of instructions issued per FU type, per thread (Count)
system.cpu.statIssuedInstType_0::SimdAlu          884      0.00%     44.20% # Number of instructions issued per FU type, per thread (Count)
system.cpu.statIssuedInstType_0::SimdCmp           12      0.00%     44.20% # Number of instructions issued per FU type, per thread (Count)
system.cpu.statIssuedInstType_0::SimdCvt          823      0.00%     44.20% # Number of instructions issued per FU type, per thread (Count)
system.cpu.statIssuedInstType_0::SimdMisc         2125      0.00%     44.20% # Number of instructions issued per FU type, per thread (Count)
system.cpu.statIssuedInstType_0::SimdMult            0      0.00%     44.20% # Number of instructions issued per FU type, per thread (Count)
system.cpu.statIssuedInstType_0::SimdMultAcc            0      0.00%     44.20% # Number of instructions issued per FU type, per thread (Count)
system.cpu.statIssuedInstType_0::SimdShift            0      0.00%     44.20% # Number of instructions issued per FU type, per thread (Count)
system.cpu.statIssuedInstType_0::SimdShiftAcc            0      0.00%     44.20% # Number of instructions issued per FU type, per thread (Count)
system.cpu.statIssuedInstType_0::SimdDiv            0      0.00%     44.20% # Number of instructions issued per FU type, per thread (Count)
system.cpu.statIssuedInstType_0::SimdSqrt            0      0.00%     44.20% # Number of instructions issued per FU type, per thread (Count)
system.cpu.statIssuedInstType_0::SimdFloatAdd            0      0.00%     44.20% # Number of instructions issued per FU type, per thread (Count)
system.cpu.statIssuedInstType_0::SimdFloatAlu            0      0.00%     44.20% # Number of instructions issued per FU type, per thread (Count)
system.cpu.statIssuedInstType_0::SimdFloatCmp            0      0.00%     44.20% # Number of instructions issued per FU type, per thread (Count)
system.cpu.statIssuedInstType_0::SimdFloatCvt            1      0.00%     44.20% # Number of instructions issued per FU type, per thread (Count)
system.cpu.statIssuedInstType_0::SimdFloatDiv            0      0.00%     44.20% # Number of instructions issued per FU type, per thread (Count)
system.cpu.statIssuedInstType_0::SimdFloatMisc            0      0.00%     44.20% # Number of instructions issued per FU type, per thread (Count)
system.cpu.statIssuedInstType_0::SimdFloatMult            0      0.00%     44.20% # Number of instructions issued per FU type, per thread (Count)
system.cpu.statIssuedInstType_0::SimdFloatMultAcc            0      0.00%     44.20% # Number of instructions issued per FU type, per thread (Count)
system.cpu.statIssuedInstType_0::SimdFloatSqrt            0      0.00%     44.20% # Number of instructions issued per FU type, per thread (Count)
system.cpu.statIssuedInstType_0::SimdReduceAdd            0      0.00%     44.20% # Number of instructions issued per FU type, per thread (Count)
system.cpu.statIssuedInstType_0::SimdReduceAlu            0      0.00%     44.20% # Number of instructions issued per FU type, per thread (Count)
system.cpu.statIssuedInstType_0::SimdReduceCmp            0      0.00%     44.20% # Number of instructions issued per FU type, per thread (Count)
system.cpu.statIssuedInstType_0::SimdFloatReduceAdd            0      0.00%     44.20% # Number of instructions issued per FU type, per thread (Count)
system.cpu.statIssuedInstType_0::SimdFloatReduceCmp            0      0.00%     44.20% # Number of instructions issued per FU type, per thread (Count)
system.cpu.statIssuedInstType_0::SimdAes            0      0.00%     44.20% # Number of instructions issued per FU type, per thread (Count)
system.cpu.statIssuedInstType_0::SimdAesMix            0      0.00%     44.20% # Number of instructions issued per FU type, per thread (Count)
system.cpu.statIssuedInstType_0::SimdSha1Hash            0      0.00%     44.20% # Number of instructions issued per FU type, per thread (Count)
system.cpu.statIssuedInstType_0::SimdSha1Hash2            0      0.00%     44.20% # Number of instructions issued per FU type, per thread (Count)
system.cpu.statIssuedInstType_0::SimdSha256Hash            0      0.00%     44.20% # Number of instructions issued per FU type, per thread (Count)
system.cpu.statIssuedInstType_0::SimdSha256Hash2            0      0.00%     44.20% # Number of instructions issued per FU type, per thread (Count)
system.cpu.statIssuedInstType_0::SimdShaSigma2            0      0.00%     44.20% # Number of instructions issued per FU type, per thread (Count)
system.cpu.statIssuedInstType_0::SimdShaSigma3            0      0.00%     44.20% # Number of instructions issued per FU type, per thread (Count)
system.cpu.statIssuedInstType_0::SimdPredAlu            0      0.00%     44.20% # Number of instructions issued per FU type, per thread (Count)
system.cpu.statIssuedInstType_0::MemRead      1367257      1.36%     45.56% # Number of instructions issued per FU type, per thread (Count)
system.cpu.statIssuedInstType_0::MemWrite       204680      0.20%     45.76% # Number of instructions issued per FU type, per thread (Count)
system.cpu.statIssuedInstType_0::FloatMemRead          511      0.00%     45.76% # Number of instructions issued per FU type, per thread (Count)
system.cpu.statIssuedInstType_0::FloatMemWrite     54638755     54.24%    100.00% # Number of instructions issued per FU type, per thread (Count)
system.cpu.statIssuedInstType_0::IprAccess            0      0.00%    100.00% # Number of instructions issued per FU type, per thread (Count)
system.cpu.statIssuedInstType_0::InstPrefetch            0      0.00%    100.00% # Number of instructions issued per FU type, per thread (Count)
system.cpu.statIssuedInstType_0::total      100738236                       # Number of instructions issued per FU type, per thread (Count)
system.cpu.issueRate                         0.253235                       # Inst issue rate ((Count/Cycle))
system.cpu.fuBusy                             1880200                       # FU busy when requested (Count)
system.cpu.fuBusyRate                        0.018664                       # FU busy rate (busy events/executed inst) ((Count/Count))
system.cpu.intInstQueueReads                490053508                       # Number of integer instruction queue reads (Count)
system.cpu.intInstQueueWrites                48171970                       # Number of integer instruction queue writes (Count)
system.cpu.intInstQueueWakeupAccesses        46081841                       # Number of integer instruction queue wakeup accesses (Count)
system.cpu.fpInstQueueReads                 111086607                       # Number of floating instruction queue reads (Count)
system.cpu.fpInstQueueWrites                 57462857                       # Number of floating instruction queue writes (Count)
system.cpu.fpInstQueueWakeupAccesses         51834191                       # Number of floating instruction queue wakeup accesses (Count)
system.cpu.vecInstQueueReads                        0                       # Number of vector instruction queue reads (Count)
system.cpu.vecInstQueueWrites                       0                       # Number of vector instruction queue writes (Count)
system.cpu.vecInstQueueWakeupAccesses               0                       # Number of vector instruction queue wakeup accesses (Count)
system.cpu.intAluAccesses                    46174963                       # Number of integer alu accesses (Count)
system.cpu.fpAluAccesses                     56442564                       # Number of floating point alu accesses (Count)
system.cpu.vecAluAccesses                           0                       # Number of vector alu accesses (Count)
system.cpu.numInsts                         100728084                       # Number of executed instructions (Count)
system.cpu.numLoadInsts                       1363634                       # Number of load instructions executed (Count)
system.cpu.numSquashedInsts                     10150                       # Number of squashed instructions skipped in execute (Count)
system.cpu.numSwp                                   0                       # Number of swp insts executed (Count)
system.cpu.numNop                                   0                       # Number of nop insts executed (Count)
system.cpu.numRefs                           56205559                       # Number of memory reference insts executed (Count)
system.cpu.numBranches                        6858065                       # Number of branches executed (Count)
system.cpu.numStoreInsts                     54841925                       # Number of stores executed (Count)
system.cpu.numRate                           0.253209                       # Inst execution rate ((Count/Cycle))
system.cpu.timesIdled                             479                       # Number of times that the entire CPU went into an idle state and unscheduled itself (Count)
system.cpu.idleCycles                           22505                       # Total number of cycles that the CPU has spent unscheduled due to idling (Cycle)
system.cpu.committedInsts                    50000000                       # Number of Instructions Simulated (Count)
system.cpu.committedOps                      95981340                       # Number of Ops (including micro ops) Simulated (Count)
system.cpu.cpi                               7.956112                       # CPI: Cycles Per Instruction ((Cycle/Count))
system.cpu.totalCpi                          7.956112                       # CPI: Total CPI of All Threads ((Cycle/Count))
system.cpu.ipc                               0.125690                       # IPC: Instructions Per Cycle ((Count/Cycle))
system.cpu.totalIpc                          0.125690                       # IPC: Total IPC of All Threads ((Count/Cycle))
system.cpu.intRegfileReads                  104423986                       # Number of integer regfile reads (Count)
system.cpu.intRegfileWrites                  32068989                       # Number of integer regfile writes (Count)
system.cpu.fpRegfileReads                    54647826                       # Number of floating regfile reads (Count)
system.cpu.fpRegfileWrites                       4647                       # Number of floating regfile writes (Count)
system.cpu.ccRegfileReads                    36055515                       # number of cc regfile reads (Count)
system.cpu.ccRegfileWrites                   30553661                       # number of cc regfile writes (Count)
system.cpu.miscRegfileReads                  69940443                       # number of misc regfile reads (Count)
system.cpu.MemDepUnit__0.insertedLoads        1381005                       # Number of loads inserted to the mem dependence unit. (Count)
system.cpu.MemDepUnit__0.insertedStores      54853366                       # Number of stores inserted to the mem dependence unit. (Count)
system.cpu.MemDepUnit__0.conflictingLoads       212287                       # Number of conflicting loads. (Count)
system.cpu.MemDepUnit__0.conflictingStores        55580                       # Number of conflicting stores. (Count)
system.cpu.MemDepUnit__1.insertedLoads              0                       # Number of loads inserted to the mem dependence unit. (Count)
system.cpu.MemDepUnit__1.insertedStores             0                       # Number of stores inserted to the mem dependence unit. (Count)
system.cpu.MemDepUnit__1.conflictingLoads            0                       # Number of conflicting loads. (Count)
system.cpu.MemDepUnit__1.conflictingStores            0                       # Number of conflicting stores. (Count)
system.cpu.MemDepUnit__2.insertedLoads              0                       # Number of loads inserted to the mem dependence unit. (Count)
system.cpu.MemDepUnit__2.insertedStores             0                       # Number of stores inserted to the mem dependence unit. (Count)
system.cpu.MemDepUnit__2.conflictingLoads            0                       # Number of conflicting loads. (Count)
system.cpu.MemDepUnit__2.conflictingStores            0                       # Number of conflicting stores. (Count)
system.cpu.MemDepUnit__3.insertedLoads              0                       # Number of loads inserted to the mem dependence unit. (Count)
system.cpu.MemDepUnit__3.insertedStores             0                       # Number of stores inserted to the mem dependence unit. (Count)
system.cpu.MemDepUnit__3.conflictingLoads            0                       # Number of conflicting loads. (Count)
system.cpu.MemDepUnit__3.conflictingStores            0                       # Number of conflicting stores. (Count)
system.cpu.branchPred.lookups                 7049686                       # Number of BP lookups (Count)
system.cpu.branchPred.condPredicted           7031837                       # Number of conditional branches predicted (Count)
system.cpu.branchPred.condIncorrect              3503                       # Number of conditional branches incorrect (Count)
system.cpu.branchPred.BTBLookups              7023777                       # Number of BTB lookups (Count)
system.cpu.branchPred.BTBHits                 7021118                       # Number of BTB hits (Count)
system.cpu.branchPred.BTBHitRatio            0.999621                       # BTB Hit Ratio (Ratio)
system.cpu.branchPred.RASUsed                    5623                       # Number of times the RAS was used to get a target. (Count)
system.cpu.branchPred.RASIncorrect                  5                       # Number of incorrect RAS predictions. (Count)
system.cpu.branchPred.indirectLookups            1097                       # Number of indirect predictor lookups. (Count)
system.cpu.branchPred.indirectHits                663                       # Number of indirect target hits. (Count)
system.cpu.branchPred.indirectMisses              434                       # Number of indirect misses. (Count)
system.cpu.branchPred.indirectMispredicted          171                       # Number of mispredicted indirect branches. (Count)
system.cpu.commit.commitSquashedInsts         4823236                       # The number of squashed insts skipped by commit (Count)
system.cpu.commit.commitNonSpecStalls              48                       # The number of times commit has been forced to stall to communicate backwards (Count)
system.cpu.commit.branchMispredicts              2635                       # The number of times a branch was mispredicted (Count)
system.cpu.commit.numCommittedDist::samples    397144065                       # Number of insts commited each cycle (Count)
system.cpu.commit.numCommittedDist::mean     0.241679                       # Number of insts commited each cycle (Count)
system.cpu.commit.numCommittedDist::stdev     0.745603                       # Number of insts commited each cycle (Count)
system.cpu.commit.numCommittedDist::underflows            0      0.00%      0.00% # Number of insts commited each cycle (Count)
system.cpu.commit.numCommittedDist::0       336871729     84.82%     84.82% # Number of insts commited each cycle (Count)
system.cpu.commit.numCommittedDist::1        44855656     11.29%     96.12% # Number of insts commited each cycle (Count)
system.cpu.commit.numCommittedDist::2         1704572      0.43%     96.55% # Number of insts commited each cycle (Count)
system.cpu.commit.numCommittedDist::3        11749989      2.96%     99.51% # Number of insts commited each cycle (Count)
system.cpu.commit.numCommittedDist::4          770191      0.19%     99.70% # Number of insts commited each cycle (Count)
system.cpu.commit.numCommittedDist::5           30352      0.01%     99.71% # Number of insts commited each cycle (Count)
system.cpu.commit.numCommittedDist::6            5157      0.00%     99.71% # Number of insts commited each cycle (Count)
system.cpu.commit.numCommittedDist::7           48245      0.01%     99.72% # Number of insts commited each cycle (Count)
system.cpu.commit.numCommittedDist::8         1108174      0.28%    100.00% # Number of insts commited each cycle (Count)
system.cpu.commit.numCommittedDist::overflows            0      0.00%    100.00% # Number of insts commited each cycle (Count)
system.cpu.commit.numCommittedDist::min_value            0                       # Number of insts commited each cycle (Count)
system.cpu.commit.numCommittedDist::max_value            8                       # Number of insts commited each cycle (Count)
system.cpu.commit.numCommittedDist::total    397144065                       # Number of insts commited each cycle (Count)
system.cpu.commit.instsCommitted             50000000                       # Number of instructions committed (Count)
system.cpu.commit.opsCommitted               95981340                       # Number of ops (including micro ops) committed (Count)
system.cpu.commit.memRefs                    53378545                       # Number of memory references committed (Count)
system.cpu.commit.loads                       1350127                       # Number of loads committed (Count)
system.cpu.commit.amos                              0                       # Number of atomic instructions committed (Count)
system.cpu.commit.membars                          32                       # Number of memory barriers committed (Count)
system.cpu.commit.branches                    6543968                       # Number of branches committed (Count)
system.cpu.commit.vectorInstructions                0                       # Number of committed Vector instructions. (Count)
system.cpu.commit.floating                   51833437                       # Number of committed floating point instructions. (Count)
system.cpu.commit.integer                    95975912                       # Number of committed integer instructions. (Count)
system.cpu.commit.functionCalls                  3805                       # Number of function calls committed. (Count)
system.cpu.commit.committedInstType_0::No_OpClass          552      0.00%      0.00% # Class of committed instruction (Count)
system.cpu.commit.committedInstType_0::IntAlu     42597873     44.38%     44.38% # Class of committed instruction (Count)
system.cpu.commit.committedInstType_0::IntMult          725      0.00%     44.38% # Class of committed instruction (Count)
system.cpu.commit.committedInstType_0::IntDiv           21      0.00%     44.38% # Class of committed instruction (Count)
system.cpu.commit.committedInstType_0::FloatAdd          199      0.00%     44.38% # Class of committed instruction (Count)
system.cpu.commit.committedInstType_0::FloatCmp            0      0.00%     44.38% # Class of committed instruction (Count)
system.cpu.commit.committedInstType_0::FloatCvt            0      0.00%     44.38% # Class of committed instruction (Count)
system.cpu.commit.committedInstType_0::FloatMult            0      0.00%     44.38% # Class of committed instruction (Count)
system.cpu.commit.committedInstType_0::FloatMultAcc            0      0.00%     44.38% # Class of committed instruction (Count)
system.cpu.commit.committedInstType_0::FloatDiv            0      0.00%     44.38% # Class of committed instruction (Count)
system.cpu.commit.committedInstType_0::FloatMisc            0      0.00%     44.38% # Class of committed instruction (Count)
system.cpu.commit.committedInstType_0::FloatSqrt            0      0.00%     44.38% # Class of committed instruction (Count)
system.cpu.commit.committedInstType_0::SimdAdd            0      0.00%     44.38% # Class of committed instruction (Count)
system.cpu.commit.committedInstType_0::SimdAddAcc            0      0.00%     44.38% # Class of committed instruction (Count)
system.cpu.commit.committedInstType_0::SimdAlu          786      0.00%     44.38% # Class of committed instruction (Count)
system.cpu.commit.committedInstType_0::SimdCmp           12      0.00%     44.38% # Class of committed instruction (Count)
system.cpu.commit.committedInstType_0::SimdCvt          788      0.00%     44.38% # Class of committed instruction (Count)
system.cpu.commit.committedInstType_0::SimdMisc         1839      0.00%     44.39% # Class of committed instruction (Count)
system.cpu.commit.committedInstType_0::SimdMult            0      0.00%     44.39% # Class of committed instruction (Count)
system.cpu.commit.committedInstType_0::SimdMultAcc            0      0.00%     44.39% # Class of committed instruction (Count)
system.cpu.commit.committedInstType_0::SimdShift            0      0.00%     44.39% # Class of committed instruction (Count)
system.cpu.commit.committedInstType_0::SimdShiftAcc            0      0.00%     44.39% # Class of committed instruction (Count)
system.cpu.commit.committedInstType_0::SimdDiv            0      0.00%     44.39% # Class of committed instruction (Count)
system.cpu.commit.committedInstType_0::SimdSqrt            0      0.00%     44.39% # Class of committed instruction (Count)
system.cpu.commit.committedInstType_0::SimdFloatAdd            0      0.00%     44.39% # Class of committed instruction (Count)
system.cpu.commit.committedInstType_0::SimdFloatAlu            0      0.00%     44.39% # Class of committed instruction (Count)
system.cpu.commit.committedInstType_0::SimdFloatCmp            0      0.00%     44.39% # Class of committed instruction (Count)
system.cpu.commit.committedInstType_0::SimdFloatCvt            0      0.00%     44.39% # Class of committed instruction (Count)
system.cpu.commit.committedInstType_0::SimdFloatDiv            0      0.00%     44.39% # Class of committed instruction (Count)
system.cpu.commit.committedInstType_0::SimdFloatMisc            0      0.00%     44.39% # Class of committed instruction (Count)
system.cpu.commit.committedInstType_0::SimdFloatMult            0      0.00%     44.39% # Class of committed instruction (Count)
system.cpu.commit.committedInstType_0::SimdFloatMultAcc            0      0.00%     44.39% # Class of committed instruction (Count)
system.cpu.commit.committedInstType_0::SimdFloatSqrt            0      0.00%     44.39% # Class of committed instruction (Count)
system.cpu.commit.committedInstType_0::SimdReduceAdd            0      0.00%     44.39% # Class of committed instruction (Count)
system.cpu.commit.committedInstType_0::SimdReduceAlu            0      0.00%     44.39% # Class of committed instruction (Count)
system.cpu.commit.committedInstType_0::SimdReduceCmp            0      0.00%     44.39% # Class of committed instruction (Count)
system.cpu.commit.committedInstType_0::SimdFloatReduceAdd            0      0.00%     44.39% # Class of committed instruction (Count)
system.cpu.commit.committedInstType_0::SimdFloatReduceCmp            0      0.00%     44.39% # Class of committed instruction (Count)
system.cpu.commit.committedInstType_0::SimdAes            0      0.00%     44.39% # Class of committed instruction (Count)
system.cpu.commit.committedInstType_0::SimdAesMix            0      0.00%     44.39% # Class of committed instruction (Count)
system.cpu.commit.committedInstType_0::SimdSha1Hash            0      0.00%     44.39% # Class of committed instruction (Count)
system.cpu.commit.committedInstType_0::SimdSha1Hash2            0      0.00%     44.39% # Class of committed instruction (Count)
system.cpu.commit.committedInstType_0::SimdSha256Hash            0      0.00%     44.39% # Class of committed instruction (Count)
system.cpu.commit.committedInstType_0::SimdSha256Hash2            0      0.00%     44.39% # Class of committed instruction (Count)
system.cpu.commit.committedInstType_0::SimdShaSigma2            0      0.00%     44.39% # Class of committed instruction (Count)
system.cpu.commit.committedInstType_0::SimdShaSigma3            0      0.00%     44.39% # Class of committed instruction (Count)
system.cpu.commit.committedInstType_0::SimdPredAlu            0      0.00%     44.39% # Class of committed instruction (Count)
system.cpu.commit.committedInstType_0::MemRead      1349679      1.41%     45.79% # Class of committed instruction (Count)
system.cpu.commit.committedInstType_0::MemWrite       199602      0.21%     46.00% # Class of committed instruction (Count)
system.cpu.commit.committedInstType_0::FloatMemRead          448      0.00%     46.00% # Class of committed instruction (Count)
system.cpu.commit.committedInstType_0::FloatMemWrite     51828816     54.00%    100.00% # Class of committed instruction (Count)
system.cpu.commit.committedInstType_0::IprAccess            0      0.00%    100.00% # Class of committed instruction (Count)
system.cpu.commit.committedInstType_0::InstPrefetch            0      0.00%    100.00% # Class of committed instruction (Count)
system.cpu.commit.committedInstType_0::total     95981340                       # Class of committed instruction (Count)
system.cpu.commit.commitEligibleSamples       1108174                       # number cycles where commit BW limit reached (Cycle)
system.cpu.dcache.demandHits::cpu.data       49862497                       # number of demand (read+write) hits (Count)
system.cpu.dcache.demandHits::total          49862497                       # number of demand (read+write) hits (Count)
system.cpu.dcache.overallHits::cpu.data      49862497                       # number of overall hits (Count)
system.cpu.dcache.overallHits::total         49862497                       # number of overall hits (Count)
system.cpu.dcache.demandMisses::cpu.data      3263108                       # number of demand (read+write) misses (Count)
system.cpu.dcache.demandMisses::total         3263108                       # number of demand (read+write) misses (Count)
system.cpu.dcache.overallMisses::cpu.data      3263108                       # number of overall misses (Count)
system.cpu.dcache.overallMisses::total        3263108                       # number of overall misses (Count)
system.cpu.dcache.demandMissLatency::cpu.data 296790896000                       # number of demand (read+write) miss ticks (Tick)
system.cpu.dcache.demandMissLatency::total 296790896000                       # number of demand (read+write) miss ticks (Tick)
system.cpu.dcache.overallMissLatency::cpu.data 296790896000                       # number of overall miss ticks (Tick)
system.cpu.dcache.overallMissLatency::total 296790896000                       # number of overall miss ticks (Tick)
system.cpu.dcache.demandAccesses::cpu.data     53125605                       # number of demand (read+write) accesses (Count)
system.cpu.dcache.demandAccesses::total      53125605                       # number of demand (read+write) accesses (Count)
system.cpu.dcache.overallAccesses::cpu.data     53125605                       # number of overall (read+write) accesses (Count)
system.cpu.dcache.overallAccesses::total     53125605                       # number of overall (read+write) accesses (Count)
system.cpu.dcache.demandMissRate::cpu.data     0.061423                       # miss rate for demand accesses (Ratio)
system.cpu.dcache.demandMissRate::total      0.061423                       # miss rate for demand accesses (Ratio)
system.cpu.dcache.overallMissRate::cpu.data     0.061423                       # miss rate for overall accesses (Ratio)
system.cpu.dcache.overallMissRate::total     0.061423                       # miss rate for overall accesses (Ratio)
system.cpu.dcache.demandAvgMissLatency::cpu.data 90953.439482                       # average overall miss latency in ticks ((Tick/Count))
system.cpu.dcache.demandAvgMissLatency::total 90953.439482                       # average overall miss latency in ticks ((Tick/Count))
system.cpu.dcache.overallAvgMissLatency::cpu.data 90953.439482                       # average overall miss latency ((Tick/Count))
system.cpu.dcache.overallAvgMissLatency::total 90953.439482                       # average overall miss latency ((Tick/Count))
system.cpu.dcache.blockedCycles::no_mshrs         1698                       # number of cycles access was blocked (Cycle)
system.cpu.dcache.blockedCycles::no_targets            0                       # number of cycles access was blocked (Cycle)
system.cpu.dcache.blockedCauses::no_mshrs           40                       # number of times access was blocked (Count)
system.cpu.dcache.blockedCauses::no_targets            0                       # number of times access was blocked (Count)
system.cpu.dcache.avgBlocked::no_mshrs      42.450000                       # average number of cycles each access was blocked ((Cycle/Count))
system.cpu.dcache.avgBlocked::no_targets          nan                       # average number of cycles each access was blocked ((Cycle/Count))
system.cpu.dcache.writebacks::writebacks      6480624                       # number of writebacks (Count)
system.cpu.dcache.writebacks::total           6480624                       # number of writebacks (Count)
system.cpu.dcache.demandMshrHits::cpu.data        46178                       # number of demand (read+write) MSHR hits (Count)
system.cpu.dcache.demandMshrHits::total         46178                       # number of demand (read+write) MSHR hits (Count)
system.cpu.dcache.overallMshrHits::cpu.data        46178                       # number of overall MSHR hits (Count)
system.cpu.dcache.overallMshrHits::total        46178                       # number of overall MSHR hits (Count)
system.cpu.dcache.demandMshrMisses::cpu.data      3216930                       # number of demand (read+write) MSHR misses (Count)
system.cpu.dcache.demandMshrMisses::total      3216930                       # number of demand (read+write) MSHR misses (Count)
system.cpu.dcache.overallMshrMisses::cpu.data      3216930                       # number of overall MSHR misses (Count)
system.cpu.dcache.overallMshrMisses::cpu.dcache.prefetcher      3265049                       # number of overall MSHR misses (Count)
system.cpu.dcache.overallMshrMisses::total      6481979                       # number of overall MSHR misses (Count)
system.cpu.dcache.demandMshrMissLatency::cpu.data 290798626000                       # number of demand (read+write) MSHR miss ticks (Tick)
system.cpu.dcache.demandMshrMissLatency::total 290798626000                       # number of demand (read+write) MSHR miss ticks (Tick)
system.cpu.dcache.overallMshrMissLatency::cpu.data 290798626000                       # number of overall MSHR miss ticks (Tick)
system.cpu.dcache.overallMshrMissLatency::cpu.dcache.prefetcher 310253378022                       # number of overall MSHR miss ticks (Tick)
system.cpu.dcache.overallMshrMissLatency::total 601052004022                       # number of overall MSHR miss ticks (Tick)
system.cpu.dcache.demandMshrMissRate::cpu.data     0.060553                       # mshr miss ratio for demand accesses (Ratio)
system.cpu.dcache.demandMshrMissRate::total     0.060553                       # mshr miss ratio for demand accesses (Ratio)
system.cpu.dcache.overallMshrMissRate::cpu.data     0.060553                       # mshr miss ratio for overall accesses (Ratio)
system.cpu.dcache.overallMshrMissRate::cpu.dcache.prefetcher          inf                       # mshr miss ratio for overall accesses (Ratio)
system.cpu.dcache.overallMshrMissRate::total     0.122012                       # mshr miss ratio for overall accesses (Ratio)
system.cpu.dcache.demandAvgMshrMissLatency::cpu.data 90396.317607                       # average overall mshr miss latency ((Tick/Count))
system.cpu.dcache.demandAvgMshrMissLatency::total 90396.317607                       # average overall mshr miss latency ((Tick/Count))
system.cpu.dcache.overallAvgMshrMissLatency::cpu.data 90396.317607                       # average overall mshr miss latency ((Tick/Count))
system.cpu.dcache.overallAvgMshrMissLatency::cpu.dcache.prefetcher 95022.579453                       # average overall mshr miss latency ((Tick/Count))
system.cpu.dcache.overallAvgMshrMissLatency::total 92726.620068                       # average overall mshr miss latency ((Tick/Count))
system.cpu.dcache.replacements                6480953                       # number of replacements (Count)
system.cpu.dcache.HardPFReq.mshrMisses::cpu.dcache.prefetcher      3265049                       # number of HardPFReq MSHR misses (Count)
system.cpu.dcache.HardPFReq.mshrMisses::total      3265049                       # number of HardPFReq MSHR misses (Count)
system.cpu.dcache.HardPFReq.mshrMissLatency::cpu.dcache.prefetcher 310253378022                       # number of HardPFReq MSHR miss ticks (Tick)
system.cpu.dcache.HardPFReq.mshrMissLatency::total 310253378022                       # number of HardPFReq MSHR miss ticks (Tick)
system.cpu.dcache.HardPFReq.mshrMissRate::cpu.dcache.prefetcher          inf                       # mshr miss rate for HardPFReq accesses (Ratio)
system.cpu.dcache.HardPFReq.mshrMissRate::total          inf                       # mshr miss rate for HardPFReq accesses (Ratio)
system.cpu.dcache.HardPFReq.avgMshrMissLatency::cpu.dcache.prefetcher 95022.579453                       # average HardPFReq mshr miss latency ((Tick/Count))
system.cpu.dcache.HardPFReq.avgMshrMissLatency::total 95022.579453                       # average HardPFReq mshr miss latency ((Tick/Count))
system.cpu.dcache.LockedRMWReadReq.hits::cpu.data           16                       # number of LockedRMWReadReq hits (Count)
system.cpu.dcache.LockedRMWReadReq.hits::total           16                       # number of LockedRMWReadReq hits (Count)
system.cpu.dcache.LockedRMWReadReq.accesses::cpu.data           16                       # number of LockedRMWReadReq accesses(hits+misses) (Count)
system.cpu.dcache.LockedRMWReadReq.accesses::total           16                       # number of LockedRMWReadReq accesses(hits+misses) (Count)
system.cpu.dcache.LockedRMWReadReq.mshrMissLatency::cpu.data       217000                       # number of LockedRMWReadReq MSHR miss ticks (Tick)
system.cpu.dcache.LockedRMWReadReq.mshrMissLatency::total       217000                       # number of LockedRMWReadReq MSHR miss ticks (Tick)
system.cpu.dcache.LockedRMWReadReq.avgMshrMissLatency::cpu.data          inf                       # average LockedRMWReadReq mshr miss latency ((Tick/Count))
system.cpu.dcache.LockedRMWReadReq.avgMshrMissLatency::total          inf                       # average LockedRMWReadReq mshr miss latency ((Tick/Count))
system.cpu.dcache.LockedRMWWriteReq.hits::cpu.data           16                       # number of LockedRMWWriteReq hits (Count)
system.cpu.dcache.LockedRMWWriteReq.hits::total           16                       # number of LockedRMWWriteReq hits (Count)
system.cpu.dcache.LockedRMWWriteReq.accesses::cpu.data           16                       # number of LockedRMWWriteReq accesses(hits+misses) (Count)
system.cpu.dcache.LockedRMWWriteReq.accesses::total           16                       # number of LockedRMWWriteReq accesses(hits+misses) (Count)
system.cpu.dcache.ReadReq.hits::cpu.data      1096643                       # number of ReadReq hits (Count)
system.cpu.dcache.ReadReq.hits::total         1096643                       # number of ReadReq hits (Count)
system.cpu.dcache.ReadReq.misses::cpu.data          683                       # number of ReadReq misses (Count)
system.cpu.dcache.ReadReq.misses::total           683                       # number of ReadReq misses (Count)
system.cpu.dcache.ReadReq.missLatency::cpu.data     54382000                       # number of ReadReq miss ticks (Tick)
system.cpu.dcache.ReadReq.missLatency::total     54382000                       # number of ReadReq miss ticks (Tick)
system.cpu.dcache.ReadReq.accesses::cpu.data      1097326                       # number of ReadReq accesses(hits+misses) (Count)
system.cpu.dcache.ReadReq.accesses::total      1097326                       # number of ReadReq accesses(hits+misses) (Count)
system.cpu.dcache.ReadReq.missRate::cpu.data     0.000622                       # miss rate for ReadReq accesses (Ratio)
system.cpu.dcache.ReadReq.missRate::total     0.000622                       # miss rate for ReadReq accesses (Ratio)
system.cpu.dcache.ReadReq.avgMissLatency::cpu.data 79622.254758                       # average ReadReq miss latency ((Tick/Count))
system.cpu.dcache.ReadReq.avgMissLatency::total 79622.254758                       # average ReadReq miss latency ((Tick/Count))
system.cpu.dcache.ReadReq.mshrHits::cpu.data          313                       # number of ReadReq MSHR hits (Count)
system.cpu.dcache.ReadReq.mshrHits::total          313                       # number of ReadReq MSHR hits (Count)
system.cpu.dcache.ReadReq.mshrMisses::cpu.data          370                       # number of ReadReq MSHR misses (Count)
system.cpu.dcache.ReadReq.mshrMisses::total          370                       # number of ReadReq MSHR misses (Count)
system.cpu.dcache.ReadReq.mshrMissLatency::cpu.data     33138000                       # number of ReadReq MSHR miss ticks (Tick)
system.cpu.dcache.ReadReq.mshrMissLatency::total     33138000                       # number of ReadReq MSHR miss ticks (Tick)
system.cpu.dcache.ReadReq.mshrMissRate::cpu.data     0.000337                       # mshr miss rate for ReadReq accesses (Ratio)
system.cpu.dcache.ReadReq.mshrMissRate::total     0.000337                       # mshr miss rate for ReadReq accesses (Ratio)
system.cpu.dcache.ReadReq.avgMshrMissLatency::cpu.data 89562.162162                       # average ReadReq mshr miss latency ((Tick/Count))
system.cpu.dcache.ReadReq.avgMshrMissLatency::total 89562.162162                       # average ReadReq mshr miss latency ((Tick/Count))
system.cpu.dcache.WriteReq.hits::cpu.data     48765854                       # number of WriteReq hits (Count)
system.cpu.dcache.WriteReq.hits::total       48765854                       # number of WriteReq hits (Count)
system.cpu.dcache.WriteReq.misses::cpu.data      3262425                       # number of WriteReq misses (Count)
system.cpu.dcache.WriteReq.misses::total      3262425                       # number of WriteReq misses (Count)
system.cpu.dcache.WriteReq.missLatency::cpu.data 296736514000                       # number of WriteReq miss ticks (Tick)
system.cpu.dcache.WriteReq.missLatency::total 296736514000                       # number of WriteReq miss ticks (Tick)
system.cpu.dcache.WriteReq.accesses::cpu.data     52028279                       # number of WriteReq accesses(hits+misses) (Count)
system.cpu.dcache.WriteReq.accesses::total     52028279                       # number of WriteReq accesses(hits+misses) (Count)
system.cpu.dcache.WriteReq.missRate::cpu.data     0.062705                       # miss rate for WriteReq accesses (Ratio)
system.cpu.dcache.WriteReq.missRate::total     0.062705                       # miss rate for WriteReq accesses (Ratio)
system.cpu.dcache.WriteReq.avgMissLatency::cpu.data 90955.811704                       # average WriteReq miss latency ((Tick/Count))
system.cpu.dcache.WriteReq.avgMissLatency::total 90955.811704                       # average WriteReq miss latency ((Tick/Count))
system.cpu.dcache.WriteReq.mshrHits::cpu.data        45865                       # number of WriteReq MSHR hits (Count)
system.cpu.dcache.WriteReq.mshrHits::total        45865                       # number of WriteReq MSHR hits (Count)
system.cpu.dcache.WriteReq.mshrMisses::cpu.data      3216560                       # number of WriteReq MSHR misses (Count)
system.cpu.dcache.WriteReq.mshrMisses::total      3216560                       # number of WriteReq MSHR misses (Count)
system.cpu.dcache.WriteReq.mshrMissLatency::cpu.data 290765488000                       # number of WriteReq MSHR miss ticks (Tick)
system.cpu.dcache.WriteReq.mshrMissLatency::total 290765488000                       # number of WriteReq MSHR miss ticks (Tick)
system.cpu.dcache.WriteReq.mshrMissRate::cpu.data     0.061823                       # mshr miss rate for WriteReq accesses (Ratio)
system.cpu.dcache.WriteReq.mshrMissRate::total     0.061823                       # mshr miss rate for WriteReq accesses (Ratio)
system.cpu.dcache.WriteReq.avgMshrMissLatency::cpu.data 90396.413560                       # average WriteReq mshr miss latency ((Tick/Count))
system.cpu.dcache.WriteReq.avgMshrMissLatency::total 90396.413560                       # average WriteReq mshr miss latency ((Tick/Count))
system.cpu.dcache.power_state.pwrStateResidencyTicks::UNDEFINED 397805596000                       # Cumulative time (in ticks) in various power states (Tick)
system.cpu.dcache.prefetcher.demandMshrMisses      3216930                       # demands not covered by prefetchs (Count)
system.cpu.dcache.prefetcher.pfIssued         3290006                       # number of hwpf issued (Count)
system.cpu.dcache.prefetcher.pfUnused              51                       # number of HardPF blocks evicted w/o reference (Count)
system.cpu.dcache.prefetcher.pfUseful         3219136                       # number of useful prefetch (Count)
system.cpu.dcache.prefetcher.pfUsefulButMiss            0                       # number of hit on prefetch but cache block is not in an usable state (Count)
system.cpu.dcache.prefetcher.accuracy        0.978459                       # accuracy of the prefetcher (Count)
system.cpu.dcache.prefetcher.coverage        0.500171                       # coverage brought by this prefetcher (Count)
system.cpu.dcache.prefetcher.pfHitInCache        24944                       # number of prefetches hitting in cache (Count)
system.cpu.dcache.prefetcher.pfHitInMSHR           13                       # number of prefetches hitting in a MSHR (Count)
system.cpu.dcache.prefetcher.pfHitInWB              0                       # number of prefetches hit in the Write Buffer (Count)
system.cpu.dcache.prefetcher.pfLate             24957                       # number of late prefetches (hitting in cache, MSHR or WB) (Count)
system.cpu.dcache.prefetcher.pfIdentified      3310176                       # number of prefetch candidates identified (Count)
system.cpu.dcache.prefetcher.pfBufferHit        12620                       # number of redundant prefetches already in prefetch queue (Count)
system.cpu.dcache.prefetcher.pfInCache              0                       # number of redundant prefetches already in cache/mshr dropped (Count)
system.cpu.dcache.prefetcher.pfRemovedDemand           50                       # number of prefetches dropped due to a demand for the same address (Count)
system.cpu.dcache.prefetcher.pfRemovedFull            0                       # number of prefetches dropped due to prefetch queue size (Count)
system.cpu.dcache.prefetcher.pfSpanPage         35804                       # number of prefetches that crossed the page (Count)
system.cpu.dcache.prefetcher.pfUsefulSpanPage            0                       # number of prefetches that is useful and crossed the page (Count)
system.cpu.dcache.prefetcher.power_state.pwrStateResidencyTicks::UNDEFINED 397805596000                       # Cumulative time (in ticks) in various power states (Tick)
system.cpu.dcache.tags.tagsInUse          1023.559057                       # Average ticks per tags in use ((Tick/Count))
system.cpu.dcache.tags.totalRefs             56344506                       # Total number of references to valid blocks. (Count)
system.cpu.dcache.tags.sampledRefs            6481977                       # Sample count of references to valid blocks. (Count)
system.cpu.dcache.tags.avgRefs               8.692488                       # Average number of references to valid blocks. ((Count/Count))
system.cpu.dcache.tags.warmupTick              185000                       # The tick when the warmup percentage was hit. (Tick)
system.cpu.dcache.tags.occupancies::cpu.data   508.697856                       # Average occupied blocks per tick, per requestor ((Count/Tick))
system.cpu.dcache.tags.occupancies::cpu.dcache.prefetcher   514.861201                       # Average occupied blocks per tick, per requestor ((Count/Tick))
system.cpu.dcache.tags.avgOccs::cpu.data     0.496775                       # Average percentage of cache occupancy ((Ratio/Tick))
system.cpu.dcache.tags.avgOccs::cpu.dcache.prefetcher     0.502794                       # Average percentage of cache occupancy ((Ratio/Tick))
system.cpu.dcache.tags.avgOccs::total        0.999569                       # Average percentage of cache occupancy ((Ratio/Tick))
system.cpu.dcache.tags.occupanciesTaskId::1022          512                       # Occupied blocks per task id (Count)
system.cpu.dcache.tags.occupanciesTaskId::1024          512                       # Occupied blocks per task id (Count)
system.cpu.dcache.tags.ageTaskId_1022::0           83                       # Occupied blocks per task id, per block age (Count)
system.cpu.dcache.tags.ageTaskId_1022::1          429                       # Occupied blocks per task id, per block age (Count)
system.cpu.dcache.tags.ageTaskId_1024::0           82                       # Occupied blocks per task id, per block age (Count)
system.cpu.dcache.tags.ageTaskId_1024::1          430                       # Occupied blocks per task id, per block age (Count)
system.cpu.dcache.tags.ratioOccsTaskId::1022     0.500000                       # Ratio of occupied blocks and all blocks, per task id (Ratio)
system.cpu.dcache.tags.ratioOccsTaskId::1024     0.500000                       # Ratio of occupied blocks and all blocks, per task id (Ratio)
system.cpu.dcache.tags.tagAccesses          218984525                       # Number of tag accesses (Count)
system.cpu.dcache.tags.dataAccesses         218984525                       # Number of data accesses (Count)
system.cpu.dcache.tags.power_state.pwrStateResidencyTicks::UNDEFINED 397805596000                       # Cumulative time (in ticks) in various power states (Tick)
system.cpu.decode.idleCycles                  4003388                       # Number of cycles decode is idle (Cycle)
system.cpu.decode.blockedCycles             381083008                       # Number of cycles decode is blocked (Cycle)
system.cpu.decode.runCycles                   1201702                       # Number of cycles decode is running (Cycle)
system.cpu.decode.unblockCycles              11447801                       # Number of cycles decode is unblocking (Cycle)
system.cpu.decode.squashCycles                  47201                       # Number of cycles decode is squashing (Cycle)
system.cpu.decode.branchResolved              6844276                       # Number of times decode resolved a branch (Count)
system.cpu.decode.branchMispred                   928                       # Number of times decode detected a branch misprediction (Count)
system.cpu.decode.decodedInsts              101011964                       # Number of instructions handled by decode (Count)
system.cpu.decode.squashedInsts                  4589                       # Number of squashed instructions handled by decode (Count)
system.cpu.fetch.icacheStallCycles             334939                       # Number of cycles fetch is stalled on an Icache miss (Cycle)
system.cpu.fetch.insts                       53622466                       # Number of instructions fetch has processed (Count)
system.cpu.fetch.branches                     7049686                       # Number of branches that fetch encountered (Count)
system.cpu.fetch.predictedBranches            7027404                       # Number of branches that fetch has predicted taken (Count)
system.cpu.fetch.cycles                     397399663                       # Number of cycles fetch has run and was not squashing or blocked (Cycle)
system.cpu.fetch.squashCycles                   96206                       # Number of cycles fetch has spent squashing (Cycle)
system.cpu.fetch.miscStallCycles                   68                       # Number of cycles fetch has spent waiting on interrupts, or bad addresses, or out of MSHRs (Cycle)
system.cpu.fetch.pendingTrapStallCycles           305                       # Number of stall cycles due to pending traps (Cycle)
system.cpu.fetch.icacheWaitRetryStallCycles           22                       # Number of stall cycles due to full MSHR (Cycle)
system.cpu.fetch.cacheLines                    302208                       # Number of cache lines fetched (Count)
system.cpu.fetch.icacheSquashes                  1480                       # Number of outstanding Icache misses that were squashed (Count)
system.cpu.fetch.nisnDist::samples          397783100                       # Number of instructions fetched each cycle (Total) (Count)
system.cpu.fetch.nisnDist::mean              0.259386                       # Number of instructions fetched each cycle (Total) (Count)
system.cpu.fetch.nisnDist::stdev             1.283146                       # Number of instructions fetched each cycle (Total) (Count)
system.cpu.fetch.nisnDist::underflows               0      0.00%      0.00% # Number of instructions fetched each cycle (Total) (Count)
system.cpu.fetch.nisnDist::0                379273855     95.35%     95.35% # Number of instructions fetched each cycle (Total) (Count)
system.cpu.fetch.nisnDist::1                   948652      0.24%     95.59% # Number of instructions fetched each cycle (Total) (Count)
system.cpu.fetch.nisnDist::2                  2364344      0.59%     96.18% # Number of instructions fetched each cycle (Total) (Count)
system.cpu.fetch.nisnDist::3                   953651      0.24%     96.42% # Number of instructions fetched each cycle (Total) (Count)
system.cpu.fetch.nisnDist::4                  2402223      0.60%     97.02% # Number of instructions fetched each cycle (Total) (Count)
system.cpu.fetch.nisnDist::5                   942409      0.24%     97.26% # Number of instructions fetched each cycle (Total) (Count)
system.cpu.fetch.nisnDist::6                  3097928      0.78%     98.04% # Number of instructions fetched each cycle (Total) (Count)
system.cpu.fetch.nisnDist::7                   667593      0.17%     98.21% # Number of instructions fetched each cycle (Total) (Count)
system.cpu.fetch.nisnDist::8                  7132445      1.79%    100.00% # Number of instructions fetched each cycle (Total) (Count)
system.cpu.fetch.nisnDist::overflows                0      0.00%    100.00% # Number of instructions fetched each cycle (Total) (Count)
system.cpu.fetch.nisnDist::min_value                0                       # Number of instructions fetched each cycle (Total) (Count)
system.cpu.fetch.nisnDist::max_value                8                       # Number of instructions fetched each cycle (Total) (Count)
system.cpu.fetch.nisnDist::total            397783100                       # Number of instructions fetched each cycle (Total) (Count)
system.cpu.fetch.branchRate                  0.017721                       # Number of branch fetches per cycle (Ratio)
system.cpu.fetch.rate                        0.134796                       # Number of inst fetches per cycle ((Count/Cycle))
system.cpu.icache.demandHits::cpu.inst         300876                       # number of demand (read+write) hits (Count)
system.cpu.icache.demandHits::total            300876                       # number of demand (read+write) hits (Count)
system.cpu.icache.overallHits::cpu.inst        300876                       # number of overall hits (Count)
system.cpu.icache.overallHits::total           300876                       # number of overall hits (Count)
system.cpu.icache.demandMisses::cpu.inst         1331                       # number of demand (read+write) misses (Count)
system.cpu.icache.demandMisses::total            1331                       # number of demand (read+write) misses (Count)
system.cpu.icache.overallMisses::cpu.inst         1331                       # number of overall misses (Count)
system.cpu.icache.overallMisses::total           1331                       # number of overall misses (Count)
system.cpu.icache.demandMissLatency::cpu.inst    104541999                       # number of demand (read+write) miss ticks (Tick)
system.cpu.icache.demandMissLatency::total    104541999                       # number of demand (read+write) miss ticks (Tick)
system.cpu.icache.overallMissLatency::cpu.inst    104541999                       # number of overall miss ticks (Tick)
system.cpu.icache.overallMissLatency::total    104541999                       # number of overall miss ticks (Tick)
system.cpu.icache.demandAccesses::cpu.inst       302207                       # number of demand (read+write) accesses (Count)
system.cpu.icache.demandAccesses::total        302207                       # number of demand (read+write) accesses (Count)
system.cpu.icache.overallAccesses::cpu.inst       302207                       # number of overall (read+write) accesses (Count)
system.cpu.icache.overallAccesses::total       302207                       # number of overall (read+write) accesses (Count)
system.cpu.icache.demandMissRate::cpu.inst     0.004404                       # miss rate for demand accesses (Ratio)
system.cpu.icache.demandMissRate::total      0.004404                       # miss rate for demand accesses (Ratio)
system.cpu.icache.overallMissRate::cpu.inst     0.004404                       # miss rate for overall accesses (Ratio)
system.cpu.icache.overallMissRate::total     0.004404                       # miss rate for overall accesses (Ratio)
system.cpu.icache.demandAvgMissLatency::cpu.inst 78543.951165                       # average overall miss latency in ticks ((Tick/Count))
system.cpu.icache.demandAvgMissLatency::total 78543.951165                       # average overall miss latency in ticks ((Tick/Count))
system.cpu.icache.overallAvgMissLatency::cpu.inst 78543.951165                       # average overall miss latency ((Tick/Count))
system.cpu.icache.overallAvgMissLatency::total 78543.951165                       # average overall miss latency ((Tick/Count))
system.cpu.icache.blockedCycles::no_mshrs          138                       # number of cycles access was blocked (Cycle)
system.cpu.icache.blockedCycles::no_targets            0                       # number of cycles access was blocked (Cycle)
system.cpu.icache.blockedCauses::no_mshrs            7                       # number of times access was blocked (Count)
system.cpu.icache.blockedCauses::no_targets            0                       # number of times access was blocked (Count)
system.cpu.icache.avgBlocked::no_mshrs      19.714286                       # average number of cycles each access was blocked ((Cycle/Count))
system.cpu.icache.avgBlocked::no_targets          nan                       # average number of cycles each access was blocked ((Cycle/Count))
system.cpu.icache.demandMshrHits::cpu.inst          347                       # number of demand (read+write) MSHR hits (Count)
system.cpu.icache.demandMshrHits::total           347                       # number of demand (read+write) MSHR hits (Count)
system.cpu.icache.overallMshrHits::cpu.inst          347                       # number of overall MSHR hits (Count)
system.cpu.icache.overallMshrHits::total          347                       # number of overall MSHR hits (Count)
system.cpu.icache.demandMshrMisses::cpu.inst          984                       # number of demand (read+write) MSHR misses (Count)
system.cpu.icache.demandMshrMisses::total          984                       # number of demand (read+write) MSHR misses (Count)
system.cpu.icache.overallMshrMisses::cpu.inst          984                       # number of overall MSHR misses (Count)
system.cpu.icache.overallMshrMisses::total          984                       # number of overall MSHR misses (Count)
system.cpu.icache.demandMshrMissLatency::cpu.inst     84005999                       # number of demand (read+write) MSHR miss ticks (Tick)
system.cpu.icache.demandMshrMissLatency::total     84005999                       # number of demand (read+write) MSHR miss ticks (Tick)
system.cpu.icache.overallMshrMissLatency::cpu.inst     84005999                       # number of overall MSHR miss ticks (Tick)
system.cpu.icache.overallMshrMissLatency::total     84005999                       # number of overall MSHR miss ticks (Tick)
system.cpu.icache.demandMshrMissRate::cpu.inst     0.003256                       # mshr miss ratio for demand accesses (Ratio)
system.cpu.icache.demandMshrMissRate::total     0.003256                       # mshr miss ratio for demand accesses (Ratio)
system.cpu.icache.overallMshrMissRate::cpu.inst     0.003256                       # mshr miss ratio for overall accesses (Ratio)
system.cpu.icache.overallMshrMissRate::total     0.003256                       # mshr miss ratio for overall accesses (Ratio)
system.cpu.icache.demandAvgMshrMissLatency::cpu.inst 85371.950203                       # average overall mshr miss latency ((Tick/Count))
system.cpu.icache.demandAvgMshrMissLatency::total 85371.950203                       # average overall mshr miss latency ((Tick/Count))
system.cpu.icache.overallAvgMshrMissLatency::cpu.inst 85371.950203                       # average overall mshr miss latency ((Tick/Count))
system.cpu.icache.overallAvgMshrMissLatency::total 85371.950203                       # average overall mshr miss latency ((Tick/Count))
system.cpu.icache.replacements                    148                       # number of replacements (Count)
system.cpu.icache.ReadReq.hits::cpu.inst       300876                       # number of ReadReq hits (Count)
system.cpu.icache.ReadReq.hits::total          300876                       # number of ReadReq hits (Count)
system.cpu.icache.ReadReq.misses::cpu.inst         1331                       # number of ReadReq misses (Count)
system.cpu.icache.ReadReq.misses::total          1331                       # number of ReadReq misses (Count)
system.cpu.icache.ReadReq.missLatency::cpu.inst    104541999                       # number of ReadReq miss ticks (Tick)
system.cpu.icache.ReadReq.missLatency::total    104541999                       # number of ReadReq miss ticks (Tick)
system.cpu.icache.ReadReq.accesses::cpu.inst       302207                       # number of ReadReq accesses(hits+misses) (Count)
system.cpu.icache.ReadReq.accesses::total       302207                       # number of ReadReq accesses(hits+misses) (Count)
system.cpu.icache.ReadReq.missRate::cpu.inst     0.004404                       # miss rate for ReadReq accesses (Ratio)
system.cpu.icache.ReadReq.missRate::total     0.004404                       # miss rate for ReadReq accesses (Ratio)
system.cpu.icache.ReadReq.avgMissLatency::cpu.inst 78543.951165                       # average ReadReq miss latency ((Tick/Count))
system.cpu.icache.ReadReq.avgMissLatency::total 78543.951165                       # average ReadReq miss latency ((Tick/Count))
system.cpu.icache.ReadReq.mshrHits::cpu.inst          347                       # number of ReadReq MSHR hits (Count)
system.cpu.icache.ReadReq.mshrHits::total          347                       # number of ReadReq MSHR hits (Count)
system.cpu.icache.ReadReq.mshrMisses::cpu.inst          984                       # number of ReadReq MSHR misses (Count)
system.cpu.icache.ReadReq.mshrMisses::total          984                       # number of ReadReq MSHR misses (Count)
system.cpu.icache.ReadReq.mshrMissLatency::cpu.inst     84005999                       # number of ReadReq MSHR miss ticks (Tick)
system.cpu.icache.ReadReq.mshrMissLatency::total     84005999                       # number of ReadReq MSHR miss ticks (Tick)
system.cpu.icache.ReadReq.mshrMissRate::cpu.inst     0.003256                       # mshr miss rate for ReadReq accesses (Ratio)
system.cpu.icache.ReadReq.mshrMissRate::total     0.003256                       # mshr miss rate for ReadReq accesses (Ratio)
system.cpu.icache.ReadReq.avgMshrMissLatency::cpu.inst 85371.950203                       # average ReadReq mshr miss latency ((Tick/Count))
system.cpu.icache.ReadReq.avgMshrMissLatency::total 85371.950203                       # average ReadReq mshr miss latency ((Tick/Count))
system.cpu.icache.power_state.pwrStateResidencyTicks::UNDEFINED 397805596000                       # Cumulative time (in ticks) in various power states (Tick)
system.cpu.icache.prefetcher.demandMshrMisses          984                       # demands not covered by prefetchs (Count)
system.cpu.icache.prefetcher.pfIssued               0                       # number of hwpf issued (Count)
system.cpu.icache.prefetcher.pfUseful               0                       # number of useful prefetch (Count)
system.cpu.icache.prefetcher.pfUsefulButMiss            0                       # number of hit on prefetch but cache block is not in an usable state (Count)
system.cpu.icache.prefetcher.accuracy             nan                       # accuracy of the prefetcher (Count)
system.cpu.icache.prefetcher.coverage               0                       # coverage brought by this prefetcher (Count)
system.cpu.icache.prefetcher.pfHitInCache            0                       # number of prefetches hitting in cache (Count)
system.cpu.icache.prefetcher.pfHitInMSHR            0                       # number of prefetches hitting in a MSHR (Count)
system.cpu.icache.prefetcher.pfHitInWB              0                       # number of prefetches hit in the Write Buffer (Count)
system.cpu.icache.prefetcher.pfLate                 0                       # number of late prefetches (hitting in cache, MSHR or WB) (Count)
system.cpu.icache.prefetcher.pfIdentified            0                       # number of prefetch candidates identified (Count)
system.cpu.icache.prefetcher.pfBufferHit            0                       # number of redundant prefetches already in prefetch queue (Count)
system.cpu.icache.prefetcher.pfInCache              0                       # number of redundant prefetches already in cache/mshr dropped (Count)
system.cpu.icache.prefetcher.pfRemovedDemand            0                       # number of prefetches dropped due to a demand for the same address (Count)
system.cpu.icache.prefetcher.pfRemovedFull            0                       # number of prefetches dropped due to prefetch queue size (Count)
system.cpu.icache.prefetcher.pfSpanPage             0                       # number of prefetches that crossed the page (Count)
system.cpu.icache.prefetcher.pfUsefulSpanPage            0                       # number of prefetches that is useful and crossed the page (Count)
system.cpu.icache.prefetcher.power_state.pwrStateResidencyTicks::UNDEFINED 397805596000                       # Cumulative time (in ticks) in various power states (Tick)
system.cpu.icache.tags.tagsInUse           589.630823                       # Average ticks per tags in use ((Tick/Count))
system.cpu.icache.tags.totalRefs               301860                       # Total number of references to valid blocks. (Count)
system.cpu.icache.tags.sampledRefs                984                       # Sample count of references to valid blocks. (Count)
system.cpu.icache.tags.avgRefs             306.768293                       # Average number of references to valid blocks. ((Count/Count))
system.cpu.icache.tags.warmupTick               88000                       # The tick when the warmup percentage was hit. (Tick)
system.cpu.icache.tags.occupancies::cpu.inst   589.630823                       # Average occupied blocks per tick, per requestor ((Count/Tick))
system.cpu.icache.tags.avgOccs::cpu.inst     0.575811                       # Average percentage of cache occupancy ((Ratio/Tick))
system.cpu.icache.tags.avgOccs::total        0.575811                       # Average percentage of cache occupancy ((Ratio/Tick))
system.cpu.icache.tags.occupanciesTaskId::1024          836                       # Occupied blocks per task id (Count)
system.cpu.icache.tags.ageTaskId_1024::4          836                       # Occupied blocks per task id, per block age (Count)
system.cpu.icache.tags.ratioOccsTaskId::1024     0.816406                       # Ratio of occupied blocks and all blocks, per task id (Ratio)
system.cpu.icache.tags.tagAccesses            1209812                       # Number of tag accesses (Count)
system.cpu.icache.tags.dataAccesses           1209812                       # Number of data accesses (Count)
system.cpu.icache.tags.power_state.pwrStateResidencyTicks::UNDEFINED 397805596000                       # Cumulative time (in ticks) in various power states (Tick)
system.cpu.iew.idleCycles                           0                       # Number of cycles IEW is idle (Cycle)
system.cpu.iew.squashCycles                     47201                       # Number of cycles IEW is squashing (Cycle)
system.cpu.iew.blockCycles                   18491985                       # Number of cycles IEW is blocking (Cycle)
system.cpu.iew.unblockCycles                203056071                       # Number of cycles IEW is unblocking (Cycle)
system.cpu.iew.dispatchedInsts              100807818                       # Number of instructions dispatched to IQ (Count)
system.cpu.iew.dispSquashedInsts                   87                       # Number of squashed instructions skipped by dispatch (Count)
system.cpu.iew.dispLoadInsts                  1381005                       # Number of dispatched load instructions (Count)
system.cpu.iew.dispStoreInsts                54853366                       # Number of dispatched store instructions (Count)
system.cpu.iew.dispNonSpecInsts                   232                       # Number of dispatched non-speculative instructions (Count)
system.cpu.iew.iqFullEvents                     19972                       # Number of times the IQ has become full, causing a stall (Count)
system.cpu.iew.lsqFullEvents                203027775                       # Number of times the LSQ has become full, causing a stall (Count)
system.cpu.iew.memOrderViolationEvents            546                       # Number of memory order violations (Count)
[...]
system.mem_ctrl.dram.numWrites::writebacks      6477517                       # Number of write requests responded to by this memory (Count)
system.mem_ctrl.dram.numWrites::total         6477517                       # Number of write requests responded to by this memory (Count)
system.mem_ctrl.dram.bwRead::cpu.inst          157987                       # Total read bandwidth from this memory ((Byte/Second))
system.mem_ctrl.dram.bwRead::cpu.data       515184548                       # Total read bandwidth from this memory ((Byte/Second))
system.mem_ctrl.dram.bwRead::cpu.dcache.prefetcher    522232654                       # Total read bandwidth from this memory ((Byte/Second))
system.mem_ctrl.dram.bwRead::l2cache.prefetcher      5418204                       # Total read bandwidth from this memory ((Byte/Second))
system.mem_ctrl.dram.bwRead::total         1042993392                       # Total read bandwidth from this memory ((Byte/Second))
system.mem_ctrl.dram.bwInstRead::cpu.inst       157987                       # Instruction read bandwidth from this memory ((Byte/Second))
system.mem_ctrl.dram.bwInstRead::total         157987                       # Instruction read bandwidth from this memory ((Byte/Second))
system.mem_ctrl.dram.bwWrite::writebacks   1042119800                       # Write bandwidth from this memory ((Byte/Second))
system.mem_ctrl.dram.bwWrite::total        1042119800                       # Write bandwidth from this memory ((Byte/Second))
system.mem_ctrl.dram.bwTotal::writebacks   1042119800                       # Total bandwidth to/from this memory ((Byte/Second))
system.mem_ctrl.dram.bwTotal::cpu.inst         157987                       # Total bandwidth to/from this memory ((Byte/Second))
system.mem_ctrl.dram.bwTotal::cpu.data      515184548                       # Total bandwidth to/from this memory ((Byte/Second))
system.mem_ctrl.dram.bwTotal::cpu.dcache.prefetcher    522232654                       # Total bandwidth to/from this memory ((Byte/Second))
system.mem_ctrl.dram.bwTotal::l2cache.prefetcher      5418204                       # Total bandwidth to/from this memory ((Byte/Second))
system.mem_ctrl.dram.bwTotal::total        2085113192                       # Total bandwidth to/from this memory ((Byte/Second))
system.mem_ctrl.dram.readBursts               6482947                       # Number of DRAM read bursts (Count)
system.mem_ctrl.dram.writeBursts              6477496                       # Number of DRAM write bursts (Count)
system.mem_ctrl.dram.perBankRdBursts::0        405127                       # Per bank write bursts (Count)
system.mem_ctrl.dram.perBankRdBursts::1        405066                       # Per bank write bursts (Count)
system.mem_ctrl.dram.perBankRdBursts::2        405053                       # Per bank write bursts (Count)
system.mem_ctrl.dram.perBankRdBursts::3        405235                       # Per bank write bursts (Count)
system.mem_ctrl.dram.perBankRdBursts::4        405291                       # Per bank write bursts (Count)
system.mem_ctrl.dram.perBankRdBursts::5        405246                       # Per bank write bursts (Count)
system.mem_ctrl.dram.perBankRdBursts::6        405185                       # Per bank write bursts (Count)
system.mem_ctrl.dram.perBankRdBursts::7        405034                       # Per bank write bursts (Count)
system.mem_ctrl.dram.perBankRdBursts::8        404899                       # Per bank write bursts (Count)
system.mem_ctrl.dram.perBankRdBursts::9        405172                       # Per bank write bursts (Count)
system.mem_ctrl.dram.perBankRdBursts::10       405275                       # Per bank write bursts (Count)
system.mem_ctrl.dram.perBankRdBursts::11       405338                       # Per bank write bursts (Count)
system.mem_ctrl.dram.perBankRdBursts::12       405140                       # Per bank write bursts (Count)
system.mem_ctrl.dram.perBankRdBursts::13       405381                       # Per bank write bursts (Count)
system.mem_ctrl.dram.perBankRdBursts::14       405252                       # Per bank write bursts (Count)
system.mem_ctrl.dram.perBankRdBursts::15       405253                       # Per bank write bursts (Count)
system.mem_ctrl.dram.perBankWrBursts::0        404736                       # Per bank write bursts (Count)
system.mem_ctrl.dram.perBankWrBursts::1        404748                       # Per bank write bursts (Count)
system.mem_ctrl.dram.perBankWrBursts::2        404764                       # Per bank write bursts (Count)
system.mem_ctrl.dram.perBankWrBursts::3        404865                       # Per bank write bursts (Count)
system.mem_ctrl.dram.perBankWrBursts::4        404880                       # Per bank write bursts (Count)
system.mem_ctrl.dram.perBankWrBursts::5        404863                       # Per bank write bursts (Count)
system.mem_ctrl.dram.perBankWrBursts::6        404882                       # Per bank write bursts (Count)
system.mem_ctrl.dram.perBankWrBursts::7        404656                       # Per bank write bursts (Count)
system.mem_ctrl.dram.perBankWrBursts::8        404592                       # Per bank write bursts (Count)
system.mem_ctrl.dram.perBankWrBursts::9        404815                       # Per bank write bursts (Count)
system.mem_ctrl.dram.perBankWrBursts::10       404936                       # Per bank write bursts (Count)
system.mem_ctrl.dram.perBankWrBursts::11       405028                       # Per bank write bursts (Count)
system.mem_ctrl.dram.perBankWrBursts::12       404836                       # Per bank write bursts (Count)
system.mem_ctrl.dram.perBankWrBursts::13       405046                       # Per bank write bursts (Count)
system.mem_ctrl.dram.perBankWrBursts::14       404931                       # Per bank write bursts (Count)
system.mem_ctrl.dram.perBankWrBursts::15       404918                       # Per bank write bursts (Count)
system.mem_ctrl.dram.totQLat             132812564139                       # Total ticks spent queuing (Tick)
system.mem_ctrl.dram.totBusLat            32414735000                       # Total ticks spent in databus transfers (Tick)
system.mem_ctrl.dram.totMemAccLat        254367820389                       # Total ticks spent from burst creation until serviced by the DRAM (Tick)
system.mem_ctrl.dram.avgQLat                 20486.45                       # Average queueing delay per DRAM burst ((Tick/Count))
system.mem_ctrl.dram.avgBusLat                5000.00                       # Average bus latency per DRAM burst ((Tick/Count))
system.mem_ctrl.dram.avgMemAccLat            39236.45                       # Average memory access latency per DRAM burst ((Tick/Count))
system.mem_ctrl.dram.readRowHits              5984041                       # Number of row buffer hits during reads (Count)
system.mem_ctrl.dram.writeRowHits             6014940                       # Number of row buffer hits during writes (Count)
system.mem_ctrl.dram.readRowHitRate             92.30                       # Row buffer hit rate for reads (Ratio)
system.mem_ctrl.dram.writeRowHitRate            92.86                       # Row buffer hit rate for writes (Ratio)
system.mem_ctrl.dram.bytesPerActivate::samples       961461                       # Bytes accessed per row activation (Byte)
system.mem_ctrl.dram.bytesPerActivate::mean   862.715655                       # Bytes accessed per row activation (Byte)
system.mem_ctrl.dram.bytesPerActivate::gmean   753.363072                       # Bytes accessed per row activation (Byte)
system.mem_ctrl.dram.bytesPerActivate::stdev   295.384856                       # Bytes accessed per row activation (Byte)
system.mem_ctrl.dram.bytesPerActivate::0-127        31390      3.26%      3.26% # Bytes accessed per row activation (Byte)
system.mem_ctrl.dram.bytesPerActivate::128-255        42921      4.46%      7.73% # Bytes accessed per row activation (Byte)
system.mem_ctrl.dram.bytesPerActivate::256-383        42586      4.43%     12.16% # Bytes accessed per row activation (Byte)
system.mem_ctrl.dram.bytesPerActivate::384-511        25225      2.62%     14.78% # Bytes accessed per row activation (Byte)
system.mem_ctrl.dram.bytesPerActivate::512-639        41970      4.37%     19.15% # Bytes accessed per row activation (Byte)
system.mem_ctrl.dram.bytesPerActivate::640-767        29689      3.09%     22.24% # Bytes accessed per row activation (Byte)
system.mem_ctrl.dram.bytesPerActivate::768-895        28528      2.97%     25.20% # Bytes accessed per row activation (Byte)
system.mem_ctrl.dram.bytesPerActivate::896-1023        42067      4.38%     29.58% # Bytes accessed per row activation (Byte)
system.mem_ctrl.dram.bytesPerActivate::1024-1151       677085     70.42%    100.00% # Bytes accessed per row activation (Byte)
system.mem_ctrl.dram.bytesPerActivate::total       961461                       # Bytes accessed per row activation (Byte)
system.mem_ctrl.dram.bytesRead              414908608                       # Total bytes read (Byte)
system.mem_ctrl.dram.bytesWritten           414559744                       # Total bytes written (Byte)
system.mem_ctrl.dram.avgRdBW              1042.993392                       # Average DRAM read bandwidth in MiBytes/s ((Byte/Second))
system.mem_ctrl.dram.avgWrBW              1042.116421                       # Average DRAM write bandwidth in MiBytes/s ((Byte/Second))
system.mem_ctrl.dram.peakBW                  12800.00                       # Theoretical peak bandwidth in MiByte/s ((Byte/Second))
system.mem_ctrl.dram.busUtil                    16.29                       # Data bus utilization in percentage (Ratio)
system.mem_ctrl.dram.busUtilRead                 8.15                       # Data bus utilization in percentage for reads (Ratio)
system.mem_ctrl.dram.busUtilWrite                8.14                       # Data bus utilization in percentage for writes (Ratio)
system.mem_ctrl.dram.pageHitRate                92.58                       # Row buffer hit rate, read and write combined (Ratio)
system.mem_ctrl.dram.power_state.pwrStateResidencyTicks::UNDEFINED 397805596000                       # Cumulative time (in ticks) in various power states (Tick)
system.mem_ctrl.dram.rank0.actEnergy       3434639880                       # Energy for activate commands per rank (pJ) (Joule)
system.mem_ctrl.dram.rank0.preEnergy       1825554390                       # Energy for precharge commands per rank (pJ) (Joule)
system.mem_ctrl.dram.rank0.readEnergy     23142432180                       # Energy for read commands per rank (pJ) (Joule)
system.mem_ctrl.dram.rank0.writeEnergy    16904416680                       # Energy for write commands per rank (pJ) (Joule)
system.mem_ctrl.dram.rank0.refreshEnergy 31401957600.000004                       # Energy for refresh commands per rank (pJ) (Joule)
system.mem_ctrl.dram.rank0.actBackEnergy  97122565050                       # Energy for active background per rank (pJ) (Joule)
system.mem_ctrl.dram.rank0.preBackEnergy  70969925760                       # Energy for precharge background per rank (pJ) (Joule)
system.mem_ctrl.dram.rank0.actPowerDownEnergy            0                       # Energy for active power-down per rank (pJ) (Joule)
system.mem_ctrl.dram.rank0.prePowerDownEnergy            0                       # Energy for precharge power-down per rank (pJ) (Joule)
system.mem_ctrl.dram.rank0.selfRefreshEnergy            0                       # Energy for self refresh per rank (pJ) (Joule)
system.mem_ctrl.dram.rank0.totalEnergy   244801491540                       # Total energy per rank (pJ) (Joule)
system.mem_ctrl.dram.rank0.averagePower    615.379708                       # Core power per rank (mW) (Watt)
system.mem_ctrl.dram.rank0.totalIdleTime            0                       # Total Idle time Per DRAM Rank (Tick)
system.mem_ctrl.dram.rank0.pwrStateTime::IDLE 181143502601                       # Time in different power states (Tick)
system.mem_ctrl.dram.rank0.pwrStateTime::REF  13283400000                       # Time in different power states (Tick)
system.mem_ctrl.dram.rank0.pwrStateTime::SREF            0                       # Time in different power states (Tick)
system.mem_ctrl.dram.rank0.pwrStateTime::PRE_PDN            0                       # Time in different power states (Tick)
system.mem_ctrl.dram.rank0.pwrStateTime::ACT 203378693399                       # Time in different power states (Tick)
system.mem_ctrl.dram.rank0.pwrStateTime::ACT_PDN            0                       # Time in different power states (Tick)
system.mem_ctrl.dram.rank1.actEnergy       3430198800                       # Energy for activate commands per rank (pJ) (Joule)
system.mem_ctrl.dram.rank1.preEnergy       1823190105                       # Energy for precharge commands per rank (pJ) (Joule)
system.mem_ctrl.dram.rank1.readEnergy     23145809400                       # Energy for read commands per rank (pJ) (Joule)
system.mem_ctrl.dram.rank1.writeEnergy    16908112440                       # Energy for write commands per rank (pJ) (Joule)
system.mem_ctrl.dram.rank1.refreshEnergy 31401957600.000004                       # Energy for refresh commands per rank (pJ) (Joule)
system.mem_ctrl.dram.rank1.actBackEnergy  97421964960                       # Energy for active background per rank (pJ) (Joule)
system.mem_ctrl.dram.rank1.preBackEnergy  70717799520                       # Energy for precharge background per rank (pJ) (Joule)
system.mem_ctrl.dram.rank1.actPowerDownEnergy            0                       # Energy for active power-down per rank (pJ) (Joule)
system.mem_ctrl.dram.rank1.prePowerDownEnergy            0                       # Energy for precharge power-down per rank (pJ) (Joule)
system.mem_ctrl.dram.rank1.selfRefreshEnergy            0                       # Energy for self refresh per rank (pJ) (Joule)
system.mem_ctrl.dram.rank1.totalEnergy   244849032825                       # Total energy per rank (pJ) (Joule)
system.mem_ctrl.dram.rank1.averagePower    615.499217                       # Core power per rank (mW) (Watt)
system.mem_ctrl.dram.rank1.totalIdleTime            0                       # Total Idle time Per DRAM Rank (Tick)
system.mem_ctrl.dram.rank1.pwrStateTime::IDLE 180500923102                       # Time in different power states (Tick)
system.mem_ctrl.dram.rank1.pwrStateTime::REF  13283400000                       # Time in different power states (Tick)
system.mem_ctrl.dram.rank1.pwrStateTime::SREF            0                       # Time in different power states (Tick)
system.mem_ctrl.dram.rank1.pwrStateTime::PRE_PDN            0                       # Time in different power states (Tick)
system.mem_ctrl.dram.rank1.pwrStateTime::ACT 204021272898                       # Time in different power states (Tick)
system.mem_ctrl.dram.rank1.pwrStateTime::ACT_PDN            0                       # Time in different power states (Tick)
system.mem_ctrl.power_state.pwrStateResidencyTicks::UNDEFINED 397805596000                       # Cumulative time (in ticks) in various power states (Tick)
system.membus.transDist::ReadResp             3281052                       # Transaction distribution (Count)
system.membus.transDist::WritebackDirty       6477517                       # Transaction distribution (Count)
system.membus.transDist::CleanEvict               497                       # Transaction distribution (Count)
system.membus.transDist::ReadExReq            3201894                       # Transaction distribution (Count)
system.membus.transDist::ReadExResp           3201894                       # Transaction distribution (Count)
system.membus.transDist::ReadSharedReq        3281053                       # Transaction distribution (Count)
system.membus.pktCount_system.l2cache.mem_side_port::system.mem_ctrl.port     19443907                       # Packet count per connected requestor and responder (Count)
system.membus.pktCount_system.l2cache.mem_side_port::total     19443907                       # Packet count per connected requestor and responder (Count)
system.membus.pktCount::total                19443907                       # Packet count per connected requestor and responder (Count)
system.membus.pktSize_system.l2cache.mem_side_port::system.mem_ctrl.port    829469632                       # Cumulative packet size per connected requestor and responder (Byte)
system.membus.pktSize_system.l2cache.mem_side_port::total    829469632                       # Cumulative packet size per connected requestor and responder (Byte)
system.membus.pktSize::total                829469632                       # Cumulative packet size per connected requestor and responder (Byte)
system.membus.snoops                                0                       # Total snoops (Count)
system.membus.snoopTraffic                          0                       # Total snoop traffic (Byte)
system.membus.snoopFanout::samples            6482947                       # Request fanout histogram (Count)
system.membus.snoopFanout::mean                     0                       # Request fanout histogram (Count)
system.membus.snoopFanout::stdev                    0                       # Request fanout histogram (Count)
system.membus.snoopFanout::underflows               0      0.00%      0.00% # Request fanout histogram (Count)
system.membus.snoopFanout::0                  6482947    100.00%    100.00% # Request fanout histogram (Count)
system.membus.snoopFanout::1                        0      0.00%    100.00% # Request fanout histogram (Count)
system.membus.snoopFanout::overflows                0      0.00%    100.00% # Request fanout histogram (Count)
system.membus.snoopFanout::min_value                0                       # Request fanout histogram (Count)
system.membus.snoopFanout::max_value                0                       # Request fanout histogram (Count)
system.membus.snoopFanout::total              6482947                       # Request fanout histogram (Count)
system.membus.power_state.pwrStateResidencyTicks::UNDEFINED 397805596000                       # Cumulative time (in ticks) in various power states (Tick)
system.membus.reqLayer2.occupancy         38873502275                       # Layer occupancy (ticks) (Tick)
system.membus.reqLayer2.utilization               0.1                       # Layer utilization (Ratio)
system.membus.respLayer0.occupancy        33625133833                       # Layer occupancy (ticks) (Tick)
system.membus.respLayer0.utilization              0.1                       # Layer utilization (Ratio)
system.membus.snoop_filter.totRequests       12960961                       # Total number of requests made to the snoop filter. (Count)
system.membus.snoop_filter.hitSingleRequests      6478014                       # Number of requests hitting in the snoop filter with a single holder of the requested data. (Count)
system.membus.snoop_filter.hitMultiRequests            0                       # Number of requests hitting in the snoop filter with multiple (>1) holders of the requested data. (Count)
system.membus.snoop_filter.totSnoops                0                       # Total number of snoops made to the snoop filter. (Count)
system.membus.snoop_filter.hitSingleSnoops            0                       # Number of snoops hitting in the snoop filter with a single holder of the requested data. (Count)
system.membus.snoop_filter.hitMultiSnoops            0                       # Number of snoops hitting in the snoop filter with multiple (>1) holders of the requested data. (Count)
system.workload.inst.arm                            0                       # number of arm instructions executed (Count)
system.workload.inst.quiesce                        0                       # number of quiesce instructions executed (Count)

---------- End Simulation Statistics   ----------
